Test_Systems/EPRI_DPV_K1-G/k21_feeder/Branches.dss
New "Line.k21_feeder" bus1=k_lsb.1.2.3.0 bus2=k21.1.2.3.0 phases=3 Switch=True length=0.001 units=ft enabled=true
New "Line.oh_10580818" bus1=k21.1.2.3.0 bus2=10580818.1.2.3.0 length=61.43121 units=m linecode=oh-3ph_795aa Seasons=1 Ratings=[400,] normamps=900 emergamps=900 phases=3 enabled=true
New "Line.oh_10579900" bus1=10580818.1.2.3.0 bus2=10579900.1.2.3.0 length=67.66287 units=m linecode=oh-3ph_795aa Seasons=1 Ratings=[400,] normamps=900 emergamps=900 phases=3 enabled=true
New "Line.oh_10573638" bus1=10579900.1.2.3.0 bus2=10573638.1.2.3.0 length=321.8762 units=m linecode=oh-3ph_795aa Seasons=1 Ratings=[400,] normamps=900 emergamps=900 phases=3 enabled=true
New "Line.oh_10548984" bus1=10573638.1.0 bus2=10548984.1.0 length=7.733873 units=m linecode=oh-1ph_1/0ar Seasons=1 Ratings=[400,] normamps=301 emergamps=301 phases=1 enabled=true
New "Line.oh_10548985" bus1=10548984.1.0 bus2=10548985.1.0 length=63.36951 units=m linecode=oh-1ph_1/0ar Seasons=1 Ratings=[400,] normamps=301 emergamps=301 phases=1 enabled=true
New "Line.res_srv_10548985-s-a" bus1=sec_10548985.1 bus2=ld_10548985.1 linecode=1/0_triplex_1ph Seasons=1 Ratings=[400,] normamps=202 emergamps=252.5 phases=1 length=100 units=ft
New "Line.oh_10572565" bus1=10573638.1.2.3.0 bus2=10572565.1.2.3.0 length=93.88077 units=m linecode=oh-3ph_795aa Seasons=1 Ratings=[400,] normamps=900 emergamps=900 phases=3 enabled=true
New "Line.oh_10557802" bus1=10572565.1.2.3.0 bus2=10557802.1.2.3.0 length=83.52397 units=m linecode=oh-3ph_795aa Seasons=1 Ratings=[400,] normamps=900 emergamps=900 phases=3 enabled=true
New "Line.oh_10557182" bus1=10557802.1.2.3.0 bus2=10557182.1.2.3.0 length=47.29225 units=m linecode=oh-3ph_795aa Seasons=1 Ratings=[400,] normamps=900 emergamps=900 phases=3 enabled=true
New "Line.oh_10548903" bus1=10557182.1.2.3.0 bus2=10548903.1.2.3.0 length=14.02182 units=m linecode=oh-3ph_1/0ar Seasons=1 Ratings=[400,] normamps=301 emergamps=301 phases=3 enabled=true
New "Line.oh_10548902" bus1=10548903.1.2.3.0 bus2=10548902.1.2.3.0 length=23.32216 units=m linecode=oh-3ph_1/0ar Seasons=1 Ratings=[400,] normamps=301 emergamps=301 phases=3 enabled=true
New "Line.oh_34084602" bus1=10548902.1.2.3.0 bus2=34084602.1.2.3.0 length=79.68525 units=m linecode=oh-3ph_1/0ar Seasons=1 Ratings=[400,] normamps=301 emergamps=301 phases=3 enabled=true
New "Line.res_srv_34084602-s-c" bus1=sec_34084602.3 bus2=ld_34084602.3 linecode=1/0_triplex_1ph Seasons=1 Ratings=[400,] normamps=202 emergamps=252.5 phases=1 length=100 units=ft
New "Line.oh_34084601" bus1=34084602.1.2.3.0 bus2=34084601.1.2.3.0 length=36.76732 units=m linecode=oh-3ph_1/0ar Seasons=1 Ratings=[400,] normamps=301 emergamps=301 phases=3 enabled=true
New "Line.oh_10548901" bus1=34084601.1.2.3.0 bus2=10548901.1.2.3.0 length=36.76445 units=m linecode=oh-3ph_1/0ar Seasons=1 Ratings=[400,] normamps=301 emergamps=301 phases=3 enabled=true
New "Line.com_srv_10548901-s-a" bus1=sec_10548901.1.2.3 bus2=ld_10548901.1.2.3 linecode=1/0_triplex_3ph Seasons=1 Ratings=[400,] normamps=202 emergamps=252.5 phases=3 length=100 units=ft
New "Line.oh_34090031" bus1=10548901.1.2.3.0 bus2=34090031.1.2.3.0 length=4.604607 units=m linecode=oh-3ph_1/0ar Seasons=1 Ratings=[400,] normamps=301 emergamps=301 phases=3 enabled=true
New "Line.oh_10548987" bus1=34090031.2.0 bus2=10548987.2.0 length=67.41644 units=m linecode=oh-1ph_1/0ar Seasons=1 Ratings=[400,] normamps=301 emergamps=301 phases=1 enabled=true
New "Line.oh_10548988" bus1=10548987.2.0 bus2=10548988.2.0 length=72.64817 units=m linecode=oh-1ph_1/0ar Seasons=1 Ratings=[400,] normamps=301 emergamps=301 phases=1 enabled=true
New "Line.res_srv_10548988-s-b" bus1=sec_10548988.2 bus2=ld_10548988.2 linecode=1/0_triplex_1ph Seasons=1 Ratings=[400,] normamps=202 emergamps=252.5 phases=1 length=100 units=ft
New "Line.oh_34084592" bus1=10548988.2.0 bus2=34084592.2.0 length=3.870648 units=m linecode=oh-1ph_1/0ar Seasons=1 Ratings=[400,] normamps=301 emergamps=301 phases=1 enabled=true
New "Line.oh_10548989" bus1=34084592.2.0 bus2=10548989.2.0 length=52.91977 units=m linecode=oh-1ph_1/0ar Seasons=1 Ratings=[400,] normamps=301 emergamps=301 phases=1 enabled=true
New "Line.res_srv_10548989-s-b" bus1=sec_10548989.2 bus2=ld_10548989.2 linecode=1/0_triplex_1ph Seasons=1 Ratings=[400,] normamps=202 emergamps=252.5 phases=1 length=100 units=ft
New "Line.oh_34084593" bus1=10548989.2.0 bus2=34084593.2.0 length=4.134483 units=m linecode=oh-1ph_1/0ar Seasons=1 Ratings=[400,] normamps=301 emergamps=301 phases=1 enabled=true
New "Line.oh_20350796" bus1=34084593.2.0 bus2=20350796.2.0 length=63.04617 units=m linecode=oh-1ph_1/0ar Seasons=1 Ratings=[400,] normamps=301 emergamps=301 phases=1 enabled=true
New "Line.res_srv_20350796-s-b" bus1=sec_20350796.2 bus2=ld_20350796.2 linecode=1/0_triplex_1ph Seasons=1 Ratings=[400,] normamps=202 emergamps=252.5 phases=1 length=100 units=ft
New "Line.oh_34085371" bus1=10548987.2.0 bus2=34085371.2.0 length=25.44613 units=m linecode=oh-1ph_1/0ar Seasons=1 Ratings=[400,] normamps=301 emergamps=301 phases=1 enabled=true
New "Line.res_srv_34085371-s-b" bus1=sec_34085371.2 bus2=ld_34085371.2 linecode=1/0_triplex_1ph Seasons=1 Ratings=[400,] normamps=202 emergamps=252.5 phases=1 length=100 units=ft
New "Line.oh_10548992" bus1=34085371.2.0 bus2=10548992.2.0 length=43.00644 units=m linecode=oh-1ph_1/0ar Seasons=1 Ratings=[400,] normamps=301 emergamps=301 phases=1 enabled=true
New "Line.res_srv_10548992-s-b" bus1=sec_10548992.2 bus2=ld_10548992.2 linecode=1/0_triplex_1ph Seasons=1 Ratings=[400,] normamps=202 emergamps=252.5 phases=1 length=100 units=ft
New "Line.oh_10548986" bus1=34084601.1.0 bus2=10548986.1.0 length=58.50004 units=m linecode=oh-1ph_1/0ar Seasons=1 Ratings=[400,] normamps=301 emergamps=301 phases=1 enabled=true
New "Line.res_srv_10548986-s-a" bus1=sec_10548986.1 bus2=ld_10548986.1 linecode=1/0_triplex_1ph Seasons=1 Ratings=[400,] normamps=202 emergamps=252.5 phases=1 length=100 units=ft
New "Line.oh_10548911" bus1=10557182.1.2.3.0 bus2=10548911.1.2.3.0 length=4.08656 units=m linecode=oh-3ph_397aa Seasons=1 Ratings=[400,] normamps=590 emergamps=590 phases=3 enabled=true
New "Line.res_srv_10548911-s-a" bus1=sec_10548911.1 bus2=ld_10548911.1 linecode=1/0_triplex_1ph Seasons=1 Ratings=[400,] normamps=202 emergamps=252.5 phases=1 length=100 units=ft
New "Line.oh_34095651" bus1=10548911.1.2.3.0 bus2=34095651.1.2.3.0 length=101.4418 units=m linecode=oh-3ph_397aa Seasons=1 Ratings=[400,] normamps=590 emergamps=590 phases=3 enabled=true
New "Line.com_srv_34095651-s-a" bus1=sec_34095651.1 bus2=ld_34095651.1 linecode=1/0_triplex_1ph Seasons=1 Ratings=[400,] normamps=202 emergamps=252.5 phases=1 length=100 units=ft
New "Line.oh_34090003" bus1=34095651.1.2.3.0 bus2=34090003.1.2.3.0 length=48.57569 units=m linecode=oh-3ph_397aa Seasons=1 Ratings=[400,] normamps=590 emergamps=590 phases=3 enabled=true
New "Line.res_srv_34090003-s-c" bus1=sec_34090003.3 bus2=ld_34090003.3 linecode=1/0_triplex_1ph Seasons=1 Ratings=[400,] normamps=202 emergamps=252.5 phases=1 length=100 units=ft
New "Line.oh_34085370" bus1=34090003.1.2.3.0 bus2=34085370.1.2.3.0 length=17.87513 units=m linecode=oh-3ph_397aa Seasons=1 Ratings=[400,] normamps=590 emergamps=590 phases=3 enabled=true
New "Line.oh_10548912" bus1=34085370.1.2.3.0 bus2=10548912.1.2.3.0 length=38.76856 units=m linecode=oh-3ph_397aa Seasons=1 Ratings=[400,] normamps=590 emergamps=590 phases=3 enabled=true
New "Line.oh_10548913" bus1=10548912.1.2.3.0 bus2=10548913.1.2.3.0 length=127.2394 units=m linecode=oh-3ph_397aa Seasons=1 Ratings=[400,] normamps=590 emergamps=590 phases=3 enabled=true
New "Line.oh_10548963" bus1=10548913.2.0 bus2=10548963.2.0 length=13.57378 units=m linecode=oh-1ph_1/0ar Seasons=1 Ratings=[400,] normamps=301 emergamps=301 phases=1 enabled=true
New "Line.oh_10548962" bus1=10548963.2.0 bus2=10548962.2.0 length=43.64123 units=m linecode=oh-1ph_1/0ar Seasons=1 Ratings=[400,] normamps=301 emergamps=301 phases=1 enabled=true
New "Line.res_srv_10548962-s-b" bus1=sec_10548962.2 bus2=ld_10548962.2 linecode=1/0_triplex_1ph Seasons=1 Ratings=[400,] normamps=202 emergamps=252.5 phases=1 length=100 units=ft
New "Line.oh_34090004" bus1=10548913.1.2.3.0 bus2=34090004.1.2.3.0 length=4.210908 units=m linecode=oh-3ph_397aa Seasons=1 Ratings=[400,] normamps=590 emergamps=590 phases=3 enabled=true
New "Line.com_srv_34090004-s-c" bus1=sec_34090004.1.2.3 bus2=ld_34090004.1.2.3 linecode=1/0_triplex_3ph Seasons=1 Ratings=[400,] normamps=202 emergamps=252.5 phases=3 length=100 units=ft
New "Line.oh_10548914" bus1=34090004.1.2.3.0 bus2=10548914.1.2.3.0 length=71.02963 units=m linecode=oh-3ph_397aa Seasons=1 Ratings=[400,] normamps=590 emergamps=590 phases=3 enabled=true
New "Line.oh_10548915" bus1=10548914.1.2.3.0 bus2=10548915.1.2.3.0 length=136.8426 units=m linecode=oh-3ph_397aa Seasons=1 Ratings=[400,] normamps=590 emergamps=590 phases=3 enabled=true
New "Line.oh_10548916" bus1=10548915.1.2.3.0 bus2=10548916.1.2.3.0 length=85.58281 units=m linecode=oh-3ph_397aa Seasons=1 Ratings=[400,] normamps=590 emergamps=590 phases=3 enabled=true
New "Line.oh_10548949" bus1=10548916.2.0 bus2=10548949.2.0 length=8.286343 units=m linecode=oh-1ph_1/0ar Seasons=1 Ratings=[400,] normamps=301 emergamps=301 phases=1 enabled=true
New "Line.oh_10548948" bus1=10548949.2.0 bus2=10548948.2.0 length=18.57133 units=m linecode=oh-1ph_1/0ar Seasons=1 Ratings=[400,] normamps=301 emergamps=301 phases=1 enabled=true
New "Line.res_srv_10548948-s-b" bus1=sec_10548948.2 bus2=ld_10548948.2 linecode=1/0_triplex_1ph Seasons=1 Ratings=[400,] normamps=202 emergamps=252.5 phases=1 length=100 units=ft
New "Line.oh_10548917" bus1=10548916.1.2.3.0 bus2=10548917.1.2.3.0 length=401.0199 units=m linecode=oh-3ph_397aa Seasons=1 Ratings=[400,] normamps=590 emergamps=590 phases=3 enabled=true
New "Line.oh_34085352" bus1=10548917.1.2.3.0 bus2=34085352.1.2.3.0 length=100.0669 units=m linecode=oh-3ph_397aa Seasons=1 Ratings=[400,] normamps=590 emergamps=590 phases=3 enabled=true
New "Line.res_srv_34085352-s-b" bus1=sec_34085352.2 bus2=ld_34085352.2 linecode=1/0_triplex_1ph Seasons=1 Ratings=[400,] normamps=202 emergamps=252.5 phases=1 length=100 units=ft
New "Line.oh_34090753" bus1=34085352.1.2.3.0 bus2=34090753.1.2.3.0 length=100.4433 units=m linecode=oh-3ph_397aa Seasons=1 Ratings=[400,] normamps=590 emergamps=590 phases=3 enabled=true
New "Line.res_srv_34090753-s-a" bus1=sec_34090753.1 bus2=ld_34090753.1 linecode=1/0_triplex_1ph Seasons=1 Ratings=[400,] normamps=202 emergamps=252.5 phases=1 length=100 units=ft
New "Line.oh_10548918" bus1=34090753.1.2.3.0 bus2=10548918.1.2.3.0 length=77.85681 units=m linecode=oh-3ph_397aa Seasons=1 Ratings=[400,] normamps=590 emergamps=590 phases=3 enabled=true
New "Line.oh_10548919" bus1=10548918.1.2.3.0 bus2=10548919.1.2.3.0 length=87.90011 units=m linecode=oh-3ph_397aa Seasons=1 Ratings=[400,] normamps=590 emergamps=590 phases=3 enabled=true
New "Line.oh_10548946" bus1=10548919.2.3.0 bus2=10548946.2.3.0 length=7.654034 units=m linecode=oh-2ph_1/0ar Seasons=1 Ratings=[400,] normamps=301 emergamps=301 phases=2 enabled=true
New "Line.oh_10548945" bus1=10548946.2.3.0 bus2=10548945.2.3.0 length=10.04517 units=m linecode=oh-2ph_1/0ar Seasons=1 Ratings=[400,] normamps=301 emergamps=301 phases=2 enabled=true
New "Line.res_srv_10548945-s-c" bus1=sec_10548945.3 bus2=ld_10548945.3 linecode=1/0_triplex_1ph Seasons=1 Ratings=[400,] normamps=202 emergamps=252.5 phases=1 length=100 units=ft
New "Line.oh_34084591" bus1=10548945.2.3.0 bus2=34084591.2.3.0 length=14.44452 units=m linecode=oh-2ph_1/0ar Seasons=1 Ratings=[400,] normamps=301 emergamps=301 phases=2 enabled=true
New "Line.com_srv_34084591-s-b" bus1=sec_34084591.2 bus2=ld_34084591.2 linecode=1/0_triplex_1ph Seasons=1 Ratings=[400,] normamps=202 emergamps=252.5 phases=1 length=100 units=ft
New "Line.oh_34085402" bus1=10548919.1.2.3.0 bus2=34085402.1.2.3.0 length=223.2253 units=m linecode=oh-3ph_397aa Seasons=1 Ratings=[400,] normamps=590 emergamps=590 phases=3 enabled=true
New "Line.res_srv_34085402-s-b" bus1=sec_34085402.2 bus2=ld_34085402.2 linecode=1/0_triplex_1ph Seasons=1 Ratings=[400,] normamps=202 emergamps=252.5 phases=1 length=100 units=ft
New "Line.oh_10548920" bus1=34085402.1.2.3.0 bus2=10548920.1.2.3.0 length=130.2161 units=m linecode=oh-3ph_397aa Seasons=1 Ratings=[400,] normamps=590 emergamps=590 phases=3 enabled=true
New "Line.oh_10548921" bus1=10548920.1.2.3.0 bus2=10548921.1.2.3.0 length=44.34344 units=m linecode=oh-3ph_397aa Seasons=1 Ratings=[400,] normamps=590 emergamps=590 phases=3 enabled=true
New "Line.oh_10548934" bus1=10548921.1.2.3.0 bus2=10548934.1.2.3.0 length=8.032498 units=m linecode=oh-3ph_1/0ar Seasons=1 Ratings=[400,] normamps=301 emergamps=301 phases=3 enabled=true
New "Line.oh_20014991" bus1=10548934.1.2.3.0 bus2=20014991.1.2.3.0 length=71.42676 units=m linecode=oh-3ph_1/0ar Seasons=1 Ratings=[400,] normamps=301 emergamps=301 phases=3 enabled=true
New "Line.res_srv_20014991-s-c" bus1=sec_20014991.3 bus2=ld_20014991.3 linecode=1/0_triplex_1ph Seasons=1 Ratings=[400,] normamps=202 emergamps=252.5 phases=1 length=100 units=ft
New "Line.oh_34095589" bus1=20014991.1.2.3.0 bus2=34095589.1.2.3.0 length=72.08044 units=m linecode=oh-3ph_1/0ar Seasons=1 Ratings=[400,] normamps=301 emergamps=301 phases=3 enabled=true
New "Line.oh_34090007" bus1=34095589.1.2.3.0 bus2=34090007.1.2.3.0 length=3.75431 units=m linecode=oh-3ph_1/0ar Seasons=1 Ratings=[400,] normamps=301 emergamps=301 phases=3 enabled=true
New "Line.com_srv_34090007-s-a" bus1=sec_34090007.1.2.3 bus2=ld_34090007.1.2.3 linecode=1/0_triplex_3ph Seasons=1 Ratings=[400,] normamps=202 emergamps=252.5 phases=3 length=100 units=ft
New "Line.oh_10548933" bus1=34090007.1.2.3.0 bus2=10548933.1.2.3.0 length=29.05225 units=m linecode=oh-3ph_1/0ar Seasons=1 Ratings=[400,] normamps=301 emergamps=301 phases=3 enabled=true
New "Line.com_srv_10548933-s-a" bus1=sec_10548933.1.2.3 bus2=ld_10548933.1.2.3 linecode=1/0_triplex_3ph Seasons=1 Ratings=[400,] normamps=202 emergamps=252.5 phases=3 length=100 units=ft
New "Line.oh_34090000" bus1=10548933.1.2.3.0 bus2=34090000.1.2.3.0 length=5.361351 units=m linecode=oh-3ph_1/0ar Seasons=1 Ratings=[400,] normamps=301 emergamps=301 phases=3 enabled=true
New "Line.oh_10548947" bus1=34090000.1.0 bus2=10548947.1.0 length=19.3031 units=m linecode=oh-1ph_1/0ar Seasons=1 Ratings=[400,] normamps=301 emergamps=301 phases=1 enabled=true
New "Line.res_srv_10548947-s-a" bus1=sec_10548947.1 bus2=ld_10548947.1 linecode=1/0_triplex_1ph Seasons=1 Ratings=[400,] normamps=202 emergamps=252.5 phases=1 length=100 units=ft
New "Line.oh_20014992" bus1=34095589.1.0 bus2=20014992.1.0 length=32.39882 units=m linecode=oh-1ph_1/0ar Seasons=1 Ratings=[400,] normamps=301 emergamps=301 phases=1 enabled=true
New "Line.res_srv_20014992-s-a" bus1=sec_20014992.1 bus2=ld_20014992.1 linecode=1/0_triplex_1ph Seasons=1 Ratings=[400,] normamps=202 emergamps=252.5 phases=1 length=100 units=ft
New "Line.oh_10548922" bus1=10548921.1.2.3.0 bus2=10548922.1.2.3.0 length=45.65849 units=m linecode=oh-3ph_397aa Seasons=1 Ratings=[400,] normamps=590 emergamps=590 phases=3 enabled=true
New "Line.oh_10548930" bus1=10548922.1.2.3.0 bus2=10548930.1.2.3.0 length=94.41902 units=m linecode=oh-3ph_4/0aa Seasons=1 Ratings=[400,] normamps=498 emergamps=498 phases=3 enabled=true
New "Line.oh_10548929" bus1=10548930.1.2.3.0 bus2=10548928.1.2.3.0 length=7.119124 units=m linecode=oh-3ph_4/0aa Seasons=1 Ratings=[400,] normamps=498 emergamps=498 phases=3 enabled=true
New "Line.oh_10548923" bus1=10548922.1.2.3.0 bus2=10548923.1.2.3.0 length=80.76108 units=m linecode=oh-3ph_795aa Seasons=1 Ratings=[400,] normamps=900 emergamps=900 phases=3 enabled=true
New "Line.oh_10559735" bus1=10548923.1.2.3.0 bus2=10559735.1.2.3.0 length=159.4275 units=m linecode=oh-3ph_795aa Seasons=1 Ratings=[400,] normamps=900 emergamps=900 phases=3 enabled=true
New "Line.res_srv_10559735-s-c" bus1=sec_10559735.3 bus2=ld_10559735.3 linecode=1/0_triplex_1ph Seasons=1 Ratings=[400,] normamps=202 emergamps=252.5 phases=1 length=100 units=ft
New "Line.oh_34086008" bus1=10559735.1.2.3.0 bus2=34086008.1.2.3.0 length=72.89053 units=m linecode=oh-3ph_795aa Seasons=1 Ratings=[400,] normamps=900 emergamps=900 phases=3 enabled=true
New "Line.oh_10558506" bus1=34086008.1.2.3.0 bus2=10558506.1.2.3.0 length=13.88637 units=m linecode=oh-3ph_4ar Seasons=1 Ratings=[400,] normamps=175 emergamps=175 phases=3 enabled=true
New "Line.oh_10558507" bus1=10558506.1.2.3.0 bus2=10558507.1.2.3.0 length=89.65023 units=m linecode=oh-3ph_4ar Seasons=1 Ratings=[400,] normamps=175 emergamps=175 phases=3 enabled=true
New "Line.com_srv_10558507-s-a" bus1=sec_10558507.1.2.3 bus2=ld_10558507.1.2.3 linecode=1/0_triplex_3ph Seasons=1 Ratings=[400,] normamps=202 emergamps=252.5 phases=3 length=100 units=ft
New "Line.oh_34090086" bus1=10558507.1.2.3.0 bus2=34090086.1.2.3.0 length=49.93222 units=m linecode=oh-3ph_4ar Seasons=1 Ratings=[400,] normamps=175 emergamps=175 phases=3 enabled=true
New "Line.res_srv_34090086-s-c" bus1=sec_34090086.3 bus2=ld_34090086.3 linecode=1/0_triplex_1ph Seasons=1 Ratings=[400,] normamps=202 emergamps=252.5 phases=1 length=100 units=ft
New "Line.oh_34086299" bus1=34090086.1.2.3.0 bus2=34086299.1.2.3.0 length=48.22534 units=m linecode=oh-3ph_4ar Seasons=1 Ratings=[400,] normamps=175 emergamps=175 phases=3 enabled=true
New "Line.res_srv_34086299-s-a" bus1=sec_34086299.1 bus2=ld_34086299.1 linecode=1/0_triplex_1ph Seasons=1 Ratings=[400,] normamps=202 emergamps=252.5 phases=1 length=100 units=ft
New "Line.oh_34086298" bus1=34086299.1.2.3.0 bus2=34086298.1.2.3.0 length=14.85441 units=m linecode=oh-3ph_4ar Seasons=1 Ratings=[400,] normamps=175 emergamps=175 phases=3 enabled=true
New "Line.oh_10558469" bus1=34086298.1.2.3.0 bus2=10558469.1.2.3.0 length=13.42883 units=m linecode=oh-3ph_4ar Seasons=1 Ratings=[400,] normamps=175 emergamps=175 phases=3 enabled=true
New "Line.oh_34086318" bus1=10558469.1.2.3.0 bus2=34086318.1.2.3.0 length=3.487981 units=m linecode=oh-3ph_4ar Seasons=1 Ratings=[400,] normamps=175 emergamps=175 phases=3 enabled=true
New "Line.res_srv_34086318-s-b" bus1=sec_34086318.2 bus2=ld_34086318.2 linecode=1/0_triplex_1ph Seasons=1 Ratings=[400,] normamps=202 emergamps=252.5 phases=1 length=100 units=ft
New "Line.oh_34086324" bus1=34086318.1.2.3.0 bus2=34086324.1.2.3.0 length=68.27636 units=m linecode=oh-3ph_4ar Seasons=1 Ratings=[400,] normamps=175 emergamps=175 phases=3 enabled=true
New "Line.res_srv_34086324-s-c" bus1=sec_34086324.3 bus2=ld_34086324.3 linecode=1/0_triplex_1ph Seasons=1 Ratings=[400,] normamps=202 emergamps=252.5 phases=1 length=100 units=ft
New "Line.oh_10547826" bus1=34086324.1.2.3.0 bus2=10547826.1.2.3.0 length=67.28603 units=m linecode=oh-3ph_4ar Seasons=1 Ratings=[400,] normamps=175 emergamps=175 phases=3 enabled=true
New "Line.oh_34086797" bus1=10547826.1.2.3.0 bus2=34086797.1.2.3.0 length=5.158897 units=m linecode=oh-3ph_4ar Seasons=1 Ratings=[400,] normamps=175 emergamps=175 phases=3 enabled=true
New "Line.res_srv_34086797-s-b" bus1=sec_34086797.2 bus2=ld_34086797.2 linecode=1/0_triplex_1ph Seasons=1 Ratings=[400,] normamps=202 emergamps=252.5 phases=1 length=100 units=ft
New "Line.oh_10558471" bus1=34086797.1.2.3.0 bus2=10558471.1.2.3.0 length=67.76993 units=m linecode=oh-3ph_4ar Seasons=1 Ratings=[400,] normamps=175 emergamps=175 phases=3 enabled=true
New "Line.res_srv_10558471-s-c" bus1=sec_10558471.3 bus2=ld_10558471.3 linecode=1/0_triplex_1ph Seasons=1 Ratings=[400,] normamps=202 emergamps=252.5 phases=1 length=100 units=ft
New "Line.oh_34087255" bus1=10558471.1.2.3.0 bus2=34087255.1.2.3.0 length=4.478293 units=m linecode=oh-3ph_4ar Seasons=1 Ratings=[400,] normamps=175 emergamps=175 phases=3 enabled=true
New "Line.oh_20028684" bus1=34087255.2.0 bus2=20028684.2.0 length=13.33302 units=m linecode=oh-1ph_1/0ar Seasons=1 Ratings=[400,] normamps=301 emergamps=301 phases=1 enabled=true
New "Line.oh_20028685" bus1=20028684.2.0 bus2=20028685.2.0 length=220.4908 units=m linecode=oh-1ph_1/0ar Seasons=1 Ratings=[400,] normamps=301 emergamps=301 phases=1 enabled=true
New "Line.res_srv_20028685-s-b" bus1=sec_20028685.2 bus2=ld_20028685.2 linecode=1/0_triplex_1ph Seasons=1 Ratings=[400,] normamps=202 emergamps=252.5 phases=1 length=100 units=ft
New "Line.oh_34087254" bus1=34087255.1.2.3.0 bus2=34087254.1.2.3.0 length=66.93608 units=m linecode=oh-3ph_4ar Seasons=1 Ratings=[400,] normamps=175 emergamps=175 phases=3 enabled=true
New "Line.res_srv_34087254-s-c" bus1=sec_34087254.3 bus2=ld_34087254.3 linecode=1/0_triplex_1ph Seasons=1 Ratings=[400,] normamps=202 emergamps=252.5 phases=1 length=100 units=ft
New "Line.oh_20028683" bus1=34087254.1.2.3.0 bus2=20028683.1.2.3.0 length=68.04365 units=m linecode=oh-3ph_4ar Seasons=1 Ratings=[400,] normamps=175 emergamps=175 phases=3 enabled=true
New "Line.oh_34087256" bus1=20028683.1.2.3.0 bus2=34087256.1.2.3.0 length=54.30367 units=m linecode=oh-3ph_4ar Seasons=1 Ratings=[400,] normamps=175 emergamps=175 phases=3 enabled=true
New "Line.res_srv_34087256-s-b" bus1=sec_34087256.2 bus2=ld_34087256.2 linecode=1/0_triplex_1ph Seasons=1 Ratings=[400,] normamps=202 emergamps=252.5 phases=1 length=100 units=ft
New "Line.oh_20344324" bus1=34087256.1.2.3.0 bus2=20344324.1.2.3.0 length=66.35381 units=m linecode=oh-3ph_4ar Seasons=1 Ratings=[400,] normamps=175 emergamps=175 phases=3 enabled=true
New "Line.oh_10536946" bus1=20344324.1.2.3.0 bus2=10536946.1.2.3.0 length=6.754244 units=m linecode=oh-3ph_4ar Seasons=1 Ratings=[400,] normamps=175 emergamps=175 phases=3 enabled=true
New "Line.oh_34086829" bus1=10536946.1.2.3.0 bus2=34086829.1.2.3.0 length=65.57695 units=m linecode=oh-3ph_4ar Seasons=1 Ratings=[400,] normamps=175 emergamps=175 phases=3 enabled=true
New "Line.oh_10543079" bus1=34086829.1.2.3.0 bus2=10543079.1.2.3.0 length=134.1709 units=m linecode=oh-3ph_4ar Seasons=1 Ratings=[400,] normamps=175 emergamps=175 phases=3 enabled=true
New "Line.oh_34086796" bus1=10543079.1.2.3.0 bus2=34086796.1.2.3.0 length=62.05436 units=m linecode=oh-3ph_4ar Seasons=1 Ratings=[400,] normamps=175 emergamps=175 phases=3 enabled=true
New "Line.res_srv_34086796-s-b" bus1=sec_34086796.2 bus2=ld_34086796.2 linecode=1/0_triplex_1ph Seasons=1 Ratings=[400,] normamps=202 emergamps=252.5 phases=1 length=100 units=ft
New "Line.oh_20396671" bus1=34086796.1.2.3.0 bus2=20396671.1.2.3.0 length=60.97724 units=m linecode=oh-3ph_4ar Seasons=1 Ratings=[400,] normamps=175 emergamps=175 phases=3 enabled=true
New "Line.oh_10579447" bus1=20396671.1.2.3.0 bus2=10579447.1.2.3.0 length=8.530931 units=m linecode=oh-3ph_4ar Seasons=1 Ratings=[400,] normamps=175 emergamps=175 phases=3 enabled=true
New "Line.oh_10558478" bus1=10579447.3.0 bus2=10558478.3.0 length=8.857137 units=m linecode=oh-1ph_1/0ar Seasons=1 Ratings=[400,] normamps=301 emergamps=301 phases=1 enabled=true
New "Line.oh_10558477" bus1=10558478.3.0 bus2=10558477.3.0 length=46.06171 units=m linecode=oh-1ph_1/0ar Seasons=1 Ratings=[400,] normamps=301 emergamps=301 phases=1 enabled=true
New "Line.res_srv_10558477-s-c" bus1=sec_10558477.3 bus2=ld_10558477.3 linecode=1/0_triplex_1ph Seasons=1 Ratings=[400,] normamps=202 emergamps=252.5 phases=1 length=100 units=ft
New "Line.oh_10558473" bus1=10579447.1.2.3.0 bus2=10558473.1.2.3.0 length=80.83391 units=m linecode=oh-3ph_4ar Seasons=1 Ratings=[400,] normamps=175 emergamps=175 phases=3 enabled=true
New "Line.oh_10558476" bus1=10558473.1.2.3.0 bus2=10558476.1.2.3.0 length=31.34714 units=m linecode=oh-3ph_1/0ar Seasons=1 Ratings=[400,] normamps=301 emergamps=301 phases=3 enabled=true
New "Line.oh_10558475" bus1=10558476.1.2.3.0 bus2=10558475.1.2.3.0 length=8.193699 units=m linecode=oh-3ph_1/0ar Seasons=1 Ratings=[400,] normamps=301 emergamps=301 phases=3 enabled=true
New "Line.ug_10558494" bus1=10558475.1.2.3.0 bus2=10558494.1.2.3.0 length=12.20045 units=m linecode=ug-3ph_1/0urd Seasons=1 Ratings=[400,] normamps=155 emergamps=155 phases=3 enabled=true
New "Line.oh_10540312" bus1=10558473.1.2.3.0 bus2=10540312.1.2.3.0 length=33.62711 units=m linecode=oh-3ph_4ar Seasons=1 Ratings=[400,] normamps=175 emergamps=175 phases=3 enabled=true
New "Line.com_srv_10540312-s-a" bus1=sec_10540312.1.2.3 bus2=ld_10540312.1.2.3 linecode=unknown_750 Seasons=1 Ratings=[400,] normamps=580 emergamps=725 phases=3 length=100 units=ft
New "Line.oh_34090083" bus1=10540312.1.2.3.0 bus2=34090083.1.2.3.0 length=19.37131 units=m linecode=oh-3ph_4ar Seasons=1 Ratings=[400,] normamps=175 emergamps=175 phases=3 enabled=true
New "Line.oh_10540313" bus1=34090083.1.2.3.0 bus2=10540313.1.2.3.0 length=7.970617 units=m linecode=oh-3ph_4ar Seasons=1 Ratings=[400,] normamps=175 emergamps=175 phases=3 enabled=true
New "Line.ug_10540314" bus1=10540313.1.2.3.0 bus2=10540314.1.2.3.0 length=80.00659 units=m linecode=ug-3ph_1/0urd Seasons=1 Ratings=[400,] normamps=155 emergamps=155 phases=3 enabled=true
New "Line.com_srv_10540314-s-b" bus1=sec_10540314.1.2.3 bus2=ld_10540314.1.2.3 linecode=1/0_triplex_3ph Seasons=1 Ratings=[400,] normamps=202 emergamps=252.5 phases=3 length=100 units=ft
New "Line.oh_10580155" bus1=20396671.1.2.3.0 bus2=10580155.1.2.3.0 length=69.44648 units=m linecode=oh-3ph_1/0ar Seasons=1 Ratings=[400,] normamps=301 emergamps=301 phases=3 enabled=true
New "Line.oh_10580163" bus1=10580155.1.2.3.0 bus2=10580163.1.2.3.0 length=9.611159 units=m linecode=oh-3ph_1/0ar Seasons=1 Ratings=[400,] normamps=301 emergamps=301 phases=3 enabled=true
New "Line.oh_10580165" bus1=10580163.1.2.3.0 bus2=10580165.1.2.3.0 length=7.170108 units=m linecode=oh-3ph_1/0ar Seasons=1 Ratings=[400,] normamps=301 emergamps=301 phases=3 enabled=true
New "Line.ug_10580150" bus1=10580165.1.2.3.0 bus2=10580150.1.2.3.0 length=256.0216 units=m linecode=ug-3ph_1/0urd Seasons=1 Ratings=[400,] normamps=155 emergamps=155 phases=3 enabled=true
New "Line.com_srv_10580150-s-a" bus1=sec_10580150.1.2.3 bus2=ld_10580150.1.2.3 linecode=unknown_750 Seasons=1 Ratings=[400,] normamps=580 emergamps=725 phases=3 length=100 units=ft
New "Line.oh_20396672" bus1=10543079.1.2.3.0 bus2=20396672.1.2.3.0 length=10.09553 units=m linecode=oh-3ph_1/0ar Seasons=1 Ratings=[400,] normamps=301 emergamps=301 phases=3 enabled=true
New "Line.oh_20396674" bus1=20396672.1.2.3.0 bus2=20396674.1.2.3.0 length=8.480482 units=m linecode=oh-3ph_1/0ar Seasons=1 Ratings=[400,] normamps=301 emergamps=301 phases=3 enabled=true
New "Line.ug_20396677" bus1=20396674.1.2.3.0 bus2=20396677.1.2.3.0 length=24.12641 units=m linecode=ug-3ph_1/0urd Seasons=1 Ratings=[400,] normamps=155 emergamps=155 phases=3 enabled=true
New "Line.com_srv_20396677-s-a" bus1=sec_20396677.1.2.3 bus2=ld_20396677.1.2.3 linecode=1/0_triplex_3ph Seasons=1 Ratings=[400,] normamps=202 emergamps=252.5 phases=3 length=100 units=ft
New "Line.oh_20344325" bus1=20028683.1.2.3.0 bus2=20344325.1.2.3.0 length=26.43381 units=m linecode=oh-3ph_1/0ar Seasons=1 Ratings=[400,] normamps=301 emergamps=301 phases=3 enabled=true
New "Line.oh_20344327" bus1=20344325.1.2.3.0 bus2=20344327.1.2.3.0 length=8.550757 units=m linecode=oh-3ph_1/0ar Seasons=1 Ratings=[400,] normamps=301 emergamps=301 phases=3 enabled=true
New "Line.ug_34054927" bus1=20344327.1.0 bus2=34054927.1.0 length=19.08888 units=m linecode=ug-1ph_1/0urd Seasons=1 Ratings=[400,] normamps=155 emergamps=155 phases=1 enabled=true
New "Line.res_srv_34054927-s-a" bus1=sec_34054927.1 bus2=ld_34054927.1 linecode=1/0_triplex_1ph Seasons=1 Ratings=[400,] normamps=202 emergamps=252.5 phases=1 length=100 units=ft
New "Line.ug_34057775" bus1=34054927.1.0 bus2=34057775.1.0 length=132.4531 units=m linecode=ug-1ph_1/0urd Seasons=1 Ratings=[400,] normamps=155 emergamps=155 phases=1 enabled=true
New "Line.res_srv_34057775-s-a" bus1=sec_34057775.1 bus2=ld_34057775.1 linecode=1/0_triplex_1ph Seasons=1 Ratings=[400,] normamps=202 emergamps=252.5 phases=1 length=100 units=ft
New "Line.ug_34054962" bus1=34057775.1.0 bus2=34054962.1.0 length=129.7666 units=m linecode=ug-1ph_1/0urd Seasons=1 Ratings=[400,] normamps=155 emergamps=155 phases=1 enabled=true
New "Line.res_srv_34054962-s-a" bus1=sec_34054962.1 bus2=ld_34054962.1 linecode=1/0_triplex_1ph Seasons=1 Ratings=[400,] normamps=202 emergamps=252.5 phases=1 length=100 units=ft
New "Line.ug_34054976" bus1=34054962.1.0 bus2=34054976.1.0 length=168.7838 units=m linecode=ug-1ph_1/0urd Seasons=1 Ratings=[400,] normamps=155 emergamps=155 phases=1 enabled=true
New "Line.res_srv_34054976-s-a" bus1=sec_34054976.1 bus2=ld_34054976.1 linecode=1/0_triplex_1ph Seasons=1 Ratings=[400,] normamps=202 emergamps=252.5 phases=1 length=100 units=ft
New "Line.ug_20344334" bus1=34054976.1.0 bus2=20344334.1.0 length=116.6163 units=m linecode=ug-1ph_1/0urd Seasons=1 Ratings=[400,] normamps=155 emergamps=155 phases=1 enabled=true
New "Line.ug_34054977" bus1=20344334.1.0 bus2=34054977.1.0 length=117.8966 units=m linecode=ug-1ph_1/0urd Seasons=1 Ratings=[400,] normamps=155 emergamps=155 phases=1 enabled=true
New "Line.ug_34054992" bus1=20344327.1.0 bus2=34054992.1.0 length=75.49442 units=m linecode=ug-1ph_1/0urd Seasons=1 Ratings=[400,] normamps=155 emergamps=155 phases=1 enabled=true
New "Line.res_srv_34054992-s-a" bus1=sec_34054992.1 bus2=ld_34054992.1 linecode=1/0_triplex_1ph Seasons=1 Ratings=[400,] normamps=202 emergamps=252.5 phases=1 length=100 units=ft
New "Line.ug_34055522" bus1=34054992.1.0 bus2=34055522.1.0 length=127.34 units=m linecode=ug-1ph_1/0urd Seasons=1 Ratings=[400,] normamps=155 emergamps=155 phases=1 enabled=true
New "Line.res_srv_34055522-s-a" bus1=sec_34055522.1 bus2=ld_34055522.1 linecode=1/0_triplex_1ph Seasons=1 Ratings=[400,] normamps=202 emergamps=252.5 phases=1 length=100 units=ft
New "Line.ug_20344333" bus1=34055522.1.0 bus2=20344333.1.0 length=160.5491 units=m linecode=ug-1ph_1/0urd Seasons=1 Ratings=[400,] normamps=155 emergamps=155 phases=1 enabled=true
New "Line.res_srv_20344333-s-a" bus1=sec_20344333.1 bus2=ld_20344333.1 linecode=1/0_triplex_1ph Seasons=1 Ratings=[400,] normamps=202 emergamps=252.5 phases=1 length=100 units=ft
New "Line.ug_34054980" bus1=20344333.1.0 bus2=34054980.1.0 length=150.5664 units=m linecode=ug-1ph_1/0urd Seasons=1 Ratings=[400,] normamps=155 emergamps=155 phases=1 enabled=true
New "Line.res_srv_34054980-s-a" bus1=sec_34054980.1 bus2=ld_34054980.1 linecode=1/0_triplex_1ph Seasons=1 Ratings=[400,] normamps=202 emergamps=252.5 phases=1 length=100 units=ft
New "Line.ug_34054979" bus1=34054980.1.0 bus2=34054979.1.0 length=120.2492 units=m linecode=ug-1ph_1/0urd Seasons=1 Ratings=[400,] normamps=155 emergamps=155 phases=1 enabled=true
New "Line.res_srv_34054979-s-a" bus1=sec_34054979.1 bus2=ld_34054979.1 linecode=1/0_triplex_1ph Seasons=1 Ratings=[400,] normamps=202 emergamps=252.5 phases=1 length=100 units=ft
New "Line.ug_34054978" bus1=34054979.1.0 bus2=34054978.1.0 length=132.0544 units=m linecode=ug-1ph_1/0urd Seasons=1 Ratings=[400,] normamps=155 emergamps=155 phases=1 enabled=true
New "Line.res_srv_34054978-s-a" bus1=sec_34054978.1 bus2=ld_34054978.1 linecode=1/0_triplex_1ph Seasons=1 Ratings=[400,] normamps=202 emergamps=252.5 phases=1 length=100 units=ft
New "Line.ug_34057799" bus1=34054978.1.0 bus2=34057799.1.0 length=9.122188 units=m linecode=ug-1ph_1/0urd Seasons=1 Ratings=[400,] normamps=155 emergamps=155 phases=1 enabled=true
New "Line.ug_20344331" bus1=20344327.3.0 bus2=20344331.3.0 length=394.3388 units=m linecode=ug-1ph_1/0urd Seasons=1 Ratings=[400,] normamps=155 emergamps=155 phases=1 enabled=true
New "Line.res_srv_20344331-s-c" bus1=sec_20344331.3 bus2=ld_20344331.3 linecode=1/0_triplex_1ph Seasons=1 Ratings=[400,] normamps=202 emergamps=252.5 phases=1 length=100 units=ft
New "Line.ug_34054973" bus1=20344331.3.0 bus2=34054973.3.0 length=153.2819 units=m linecode=ug-1ph_1/0urd Seasons=1 Ratings=[400,] normamps=155 emergamps=155 phases=1 enabled=true
New "Line.ug_34057797" bus1=34054973.3.0 bus2=34057797.3.0 length=78.66968 units=m linecode=ug-1ph_1/0urd Seasons=1 Ratings=[400,] normamps=155 emergamps=155 phases=1 enabled=true
New "Line.res_srv_34057797-s-c" bus1=sec_34057797.3 bus2=ld_34057797.3 linecode=1/0_triplex_1ph Seasons=1 Ratings=[400,] normamps=202 emergamps=252.5 phases=1 length=100 units=ft
New "Line.ug_34054972" bus1=34057797.3.0 bus2=34054972.3.0 length=84.06927 units=m linecode=ug-1ph_1/0urd Seasons=1 Ratings=[400,] normamps=155 emergamps=155 phases=1 enabled=true
New "Line.res_srv_34054972-s-c" bus1=sec_34054972.3 bus2=ld_34054972.3 linecode=1/0_triplex_1ph Seasons=1 Ratings=[400,] normamps=202 emergamps=252.5 phases=1 length=100 units=ft
New "Line.ug_34054971" bus1=34054972.3.0 bus2=34054971.3.0 length=83.58879 units=m linecode=ug-1ph_1/0urd Seasons=1 Ratings=[400,] normamps=155 emergamps=155 phases=1 enabled=true
New "Line.res_srv_34054971-s-c" bus1=sec_34054971.3 bus2=ld_34054971.3 linecode=1/0_triplex_1ph Seasons=1 Ratings=[400,] normamps=202 emergamps=252.5 phases=1 length=100 units=ft
New "Line.ug_34054970" bus1=34054971.3.0 bus2=34054970.3.0 length=84.04824 units=m linecode=ug-1ph_1/0urd Seasons=1 Ratings=[400,] normamps=155 emergamps=155 phases=1 enabled=true
New "Line.ug_34054969" bus1=34054970.3.0 bus2=34054969.3.0 length=82.59933 units=m linecode=ug-1ph_1/0urd Seasons=1 Ratings=[400,] normamps=155 emergamps=155 phases=1 enabled=true
New "Line.ug_34054968" bus1=34054969.3.0 bus2=34054968.3.0 length=77.79485 units=m linecode=ug-1ph_1/0urd Seasons=1 Ratings=[400,] normamps=155 emergamps=155 phases=1 enabled=true
New "Line.ug_34054967" bus1=34054968.3.0 bus2=34054967.3.0 length=61.757 units=m linecode=ug-1ph_1/0urd Seasons=1 Ratings=[400,] normamps=155 emergamps=155 phases=1 enabled=true
New "Line.ug_20344332" bus1=20344327.2.0 bus2=20344332.2.0 length=361.2786 units=m linecode=ug-1ph_1/0urd Seasons=1 Ratings=[400,] normamps=155 emergamps=155 phases=1 enabled=true
New "Line.res_srv_20344332-s-b" bus1=sec_20344332.2 bus2=ld_20344332.2 linecode=1/0_triplex_1ph Seasons=1 Ratings=[400,] normamps=202 emergamps=252.5 phases=1 length=100 units=ft
New "Line.ug_34054975" bus1=20344332.2.0 bus2=34054975.2.0 length=120.6874 units=m linecode=ug-1ph_1/0urd Seasons=1 Ratings=[400,] normamps=155 emergamps=155 phases=1 enabled=true
New "Line.res_srv_34054975-s-b" bus1=sec_34054975.2 bus2=ld_34054975.2 linecode=1/0_triplex_1ph Seasons=1 Ratings=[400,] normamps=202 emergamps=252.5 phases=1 length=100 units=ft
New "Line.ug_34057798" bus1=34054975.2.0 bus2=34057798.2.0 length=60.57965 units=m linecode=ug-1ph_1/0urd Seasons=1 Ratings=[400,] normamps=155 emergamps=155 phases=1 enabled=true
New "Line.res_srv_34057798-s-b" bus1=sec_34057798.2 bus2=ld_34057798.2 linecode=1/0_triplex_1ph Seasons=1 Ratings=[400,] normamps=202 emergamps=252.5 phases=1 length=100 units=ft
New "Line.ug_34054974" bus1=34057798.2.0 bus2=34054974.2.0 length=141.4259 units=m linecode=ug-1ph_1/0urd Seasons=1 Ratings=[400,] normamps=155 emergamps=155 phases=1 enabled=true
New "Line.res_srv_34054974-s-b" bus1=sec_34054974.2 bus2=ld_34054974.2 linecode=1/0_triplex_1ph Seasons=1 Ratings=[400,] normamps=202 emergamps=252.5 phases=1 length=100 units=ft
New "Line.ug_34054963" bus1=34054974.2.0 bus2=34054963.2.0 length=67.25127 units=m linecode=ug-1ph_1/0urd Seasons=1 Ratings=[400,] normamps=155 emergamps=155 phases=1 enabled=true
New "Line.ug_34054964" bus1=34054963.2.0 bus2=34054964.2.0 length=35.87863 units=m linecode=ug-1ph_1/0urd Seasons=1 Ratings=[400,] normamps=155 emergamps=155 phases=1 enabled=true
New "Line.ug_20344368" bus1=34054964.2.0 bus2=20344368.2.0 length=145.21 units=m linecode=ug-1ph_1/0urd Seasons=1 Ratings=[400,] normamps=155 emergamps=155 phases=1 enabled=true
New "Line.oh_20344371" bus1=20344368.2.0 bus2=20344371.2.0 length=8.808156 units=m linecode=oh-1ph_1/0ar Seasons=1 Ratings=[400,] normamps=301 emergamps=301 phases=1 enabled=true
New "Line.oh_34086794" bus1=20344371.2.0 bus2=34086794.2.0 length=49.56018 units=m linecode=oh-1ph_1/0ar Seasons=1 Ratings=[400,] normamps=301 emergamps=301 phases=1 enabled=true
New "Line.res_srv_34086794-s-b" bus1=sec_34086794.2 bus2=ld_34086794.2 linecode=1/0_triplex_1ph Seasons=1 Ratings=[400,] normamps=202 emergamps=252.5 phases=1 length=100 units=ft
New "Line.oh_20344372" bus1=34086794.2.0 bus2=20344372.2.0 length=53.59403 units=m linecode=oh-1ph_1/0ar Seasons=1 Ratings=[400,] normamps=301 emergamps=301 phases=1 enabled=true
New "Line.res_srv_20344372-s-b" bus1=sec_20344372.2 bus2=ld_20344372.2 linecode=1/0_triplex_1ph Seasons=1 Ratings=[400,] normamps=202 emergamps=252.5 phases=1 length=100 units=ft
...
