Test_Systems/EPRI_DPV_K1-G/k21_feeder/Transformers.dss
New "Transformer.10548985-sa" phases=1 buses=[10548985.1, sec_10548985.1, ] conns=[wye, wye, ] kVs=[7.62, 0.24, ] kVAs=[15, 15, ] taps=[1, 1, ] buses=[10548985.1, sec_10548985.1, ] conns=[wye, wye, ] kVs=[7.62, 0.24, ] kVAs=[15, 15, ] taps=[1, 1, ] wdg=1 %R=0.369 RdcOhms=12.14127 wdg=2 %R=0.369 RdcOhms=0.01204416 RdcOhms=0.01204416 %loadloss=0.738 %noloadloss=0.1987 XHL=1.7532 emerghkVA=21
New "Transformer.34084602-sc" phases=1 buses=[34084602.3, sec_34084602.3, ] conns=[wye, wye, ] kVs=[7.62, 0.24, ] kVAs=[25, 25, ] taps=[1, 1, ] buses=[34084602.3, sec_34084602.3, ] conns=[wye, wye, ] kVs=[7.62, 0.24, ] kVAs=[25, 25, ] taps=[1, 1, ] wdg=1 %R=0.38195 RdcOhms=7.540417 wdg=2 %R=0.38195 RdcOhms=0.007480109 RdcOhms=0.007480109 %loadloss=0.7639 %noloadloss=0.0851 XHL=2.1 emerghkVA=35
New "Transformer.10548901-sabc" phases=3 buses=[10548901, sec_10548901, ] conns=[wye, wye, ] kVs=[13.2, 0.48, ] kVAs=[75, 75, ] taps=[1, 1, ] buses=[10548901, sec_10548901, ] conns=[wye, wye, ] kVs=[13.2, 0.48, ] kVAs=[75, 75, ] taps=[1, 1, ] wdg=1 %R=0.504 RdcOhms=3.31753 wdg=2 %R=0.504 RdcOhms=0.004386816 RdcOhms=0.004386816 %loadloss=1.008 %noloadloss=0.23 XHL=1.803 emerghkVA=35
New "Transformer.10548988-sb" phases=1 buses=[10548988.2, sec_10548988.2, ] conns=[wye, wye, ] kVs=[7.62, 0.24, ] kVAs=[25, 25, ] taps=[1, 1, ] buses=[10548988.2, sec_10548988.2, ] conns=[wye, wye, ] kVs=[7.62, 0.24, ] kVAs=[25, 25, ] taps=[1, 1, ] wdg=1 %R=0.38195 RdcOhms=7.540417 wdg=2 %R=0.38195 RdcOhms=0.007480109 RdcOhms=0.007480109 %loadloss=0.7639 %noloadloss=0.0851 XHL=2.1 emerghkVA=35
New "Transformer.10548989-sb" phases=1 buses=[10548989.2, sec_10548989.2, ] conns=[wye, wye, ] kVs=[7.62, 0.24, ] kVAs=[25, 25, ] taps=[1, 1, ] buses=[10548989.2, sec_10548989.2, ] conns=[wye, wye, ] kVs=[7.62, 0.24, ] kVAs=[25, 25, ] taps=[1, 1, ] wdg=1 %R=0.504 RdcOhms=9.949916 wdg=2 %R=0.504 RdcOhms=0.009870336 RdcOhms=0.009870336 %loadloss=1.008 %noloadloss=0.23 XHL=1.803 emerghkVA=35
New "Transformer.20350796-sb" phases=1 buses=[20350796.2, sec_20350796.2, ] conns=[wye, wye, ] kVs=[7.62, 0.24, ] kVAs=[50, 50, ] taps=[1, 1, ] buses=[20350796.2, sec_20350796.2, ] conns=[wye, wye, ] kVs=[7.62, 0.24, ] kVAs=[50, 50, ] taps=[1, 1, ] wdg=1 %R=0.4055 RdcOhms=4.002669 wdg=2 %R=0.4055 RdcOhms=0.003970656 RdcOhms=0.003970656 %loadloss=0.811 %noloadloss=0.184 XHL=1.765 emerghkVA=70
New "Transformer.34085371-sb" phases=1 buses=[34085371.2, sec_34085371.2, ] conns=[wye, wye, ] kVs=[7.62, 0.24, ] kVAs=[50, 50, ] taps=[1, 1, ] buses=[34085371.2, sec_34085371.2, ] conns=[wye, wye, ] kVs=[7.62, 0.24, ] kVAs=[50, 50, ] taps=[1, 1, ] wdg=1 %R=0.4055 RdcOhms=4.002669 wdg=2 %R=0.4055 RdcOhms=0.003970656 RdcOhms=0.003970656 %loadloss=0.811 %noloadloss=0.184 XHL=1.765 emerghkVA=70
New "Transformer.10548992-sb" phases=1 buses=[10548992.2, sec_10548992.2, ] conns=[wye, wye, ] kVs=[7.62, 0.24, ] kVAs=[37.5, 37.5, ] taps=[1, 1, ] buses=[10548992.2, sec_10548992.2, ] conns=[wye, wye, ] kVs=[7.62, 0.24, ] kVAs=[37.5, 37.5, ] taps=[1, 1, ] wdg=1 %R=0.4055 RdcOhms=5.336893 wdg=2 %R=0.4055 RdcOhms=0.005294208 RdcOhms=0.005294208 %loadloss=0.811 %noloadloss=0.184 XHL=1.765 emerghkVA=51.8
New "Transformer.10548986-sa" phases=1 buses=[10548986.1, sec_10548986.1, ] conns=[wye, wye, ] kVs=[7.62, 0.24, ] kVAs=[37.5, 37.5, ] taps=[1, 1, ] buses=[10548986.1, sec_10548986.1, ] conns=[wye, wye, ] kVs=[7.62, 0.24, ] kVAs=[37.5, 37.5, ] taps=[1, 1, ] wdg=1 %R=0.504 RdcOhms=6.633277 wdg=2 %R=0.504 RdcOhms=0.006580224 RdcOhms=0.006580224 %loadloss=1.008 %noloadloss=0.23 XHL=1.803 emerghkVA=51.8
New "Transformer.10548911-sa" phases=1 buses=[10548911.1, sec_10548911.1, ] conns=[wye, wye, ] kVs=[7.62, 0.24, ] kVAs=[50, 50, ] taps=[1, 1, ] buses=[10548911.1, sec_10548911.1, ] conns=[wye, wye, ] kVs=[7.62, 0.24, ] kVAs=[50, 50, ] taps=[1, 1, ] wdg=1 %R=0.369 RdcOhms=3.64238 wdg=2 %R=0.369 RdcOhms=0.003613248 RdcOhms=0.003613248 %loadloss=0.738 %noloadloss=0.1987 XHL=1.7532 emerghkVA=70
New "Transformer.34095651-sa" phases=1 buses=[34095651.1, sec_34095651.1, ] conns=[wye, wye, ] kVs=[7.62, 0.24, ] kVAs=[10, 10, ] taps=[1, 1, ] buses=[34095651.1, sec_34095651.1, ] conns=[wye, wye, ] kVs=[7.62, 0.24, ] kVAs=[10, 10, ] taps=[1, 1, ] wdg=1 %R=0.5765 RdcOhms=28.45301 wdg=2 %R=0.5765 RdcOhms=0.02822544 RdcOhms=0.02822544 %loadloss=1.153 %noloadloss=0.318 XHL=1.888 emerghkVA=14
New "Transformer.34090003-sc" phases=1 buses=[34090003.3, sec_34090003.3, ] conns=[wye, wye, ] kVs=[7.62, 0.24, ] kVAs=[15, 15, ] taps=[1, 1, ] buses=[34090003.3, sec_34090003.3, ] conns=[wye, wye, ] kVs=[7.62, 0.24, ] kVAs=[15, 15, ] taps=[1, 1, ] wdg=1 %R=0.369 RdcOhms=12.14127 wdg=2 %R=0.369 RdcOhms=0.01204416 RdcOhms=0.01204416 %loadloss=0.738 %noloadloss=0.1987 XHL=1.7532 emerghkVA=21
New "Transformer.10548962-sb" phases=1 buses=[10548962.2, sec_10548962.2, ] conns=[wye, wye, ] kVs=[7.62, 0.24, ] kVAs=[25, 25, ] taps=[1, 1, ] buses=[10548962.2, sec_10548962.2, ] conns=[wye, wye, ] kVs=[7.62, 0.24, ] kVAs=[25, 25, ] taps=[1, 1, ] wdg=1 %R=0.504 RdcOhms=9.949916 wdg=2 %R=0.504 RdcOhms=0.009870336 RdcOhms=0.009870336 %loadloss=1.008 %noloadloss=0.23 XHL=1.803 emerghkVA=35
New "Transformer.34090004-sabc" phases=3 buses=[34090004, sec_34090004, ] conns=[wye, wye, ] kVs=[13.2, 0.48, ] kVAs=[45, 45, ] taps=[1, 1, ] buses=[34090004, sec_34090004, ] conns=[wye, wye, ] kVs=[13.2, 0.48, ] kVAs=[45, 45, ] taps=[1, 1, ] wdg=1 %R=0.504 RdcOhms=5.529216 wdg=2 %R=0.504 RdcOhms=0.00731136 RdcOhms=0.00731136 %loadloss=1.008 %noloadloss=0.23 XHL=1.803 emerghkVA=21
New "Transformer.10548948-sb" phases=1 buses=[10548948.2, sec_10548948.2, ] conns=[wye, wye, ] kVs=[7.62, 0.24, ] kVAs=[25, 25, ] taps=[1, 1, ] buses=[10548948.2, sec_10548948.2, ] conns=[wye, wye, ] kVs=[7.62, 0.24, ] kVAs=[25, 25, ] taps=[1, 1, ] wdg=1 %R=0.504 RdcOhms=9.949916 wdg=2 %R=0.504 RdcOhms=0.009870336 RdcOhms=0.009870336 %loadloss=1.008 %noloadloss=0.23 XHL=1.803 emerghkVA=35
New "Transformer.34085352-sb" phases=1 buses=[34085352.2, sec_34085352.2, ] conns=[wye, wye, ] kVs=[7.62, 0.24, ] kVAs=[15, 15, ] taps=[1, 1, ] buses=[34085352.2, sec_34085352.2, ] conns=[wye, wye, ] kVs=[7.62, 0.24, ] kVAs=[15, 15, ] taps=[1, 1, ] wdg=1 %R=0.38195 RdcOhms=12.56736 wdg=2 %R=0.38195 RdcOhms=0.01246685 RdcOhms=0.01246685 %loadloss=0.7639 %noloadloss=0.0851 XHL=2.1 emerghkVA=21
New "Transformer.34090753-sa" phases=1 buses=[34090753.1, sec_34090753.1, ] conns=[wye, wye, ] kVs=[7.62, 0.24, ] kVAs=[15, 15, ] taps=[1, 1, ] buses=[34090753.1, sec_34090753.1, ] conns=[wye, wye, ] kVs=[7.62, 0.24, ] kVAs=[15, 15, ] taps=[1, 1, ] wdg=1 %R=0.504 RdcOhms=16.58319 wdg=2 %R=0.504 RdcOhms=0.01645056 RdcOhms=0.01645056 %loadloss=1.008 %noloadloss=0.23 XHL=1.803 emerghkVA=21
New "Transformer.10548945-sc" phases=1 buses=[10548945.3, sec_10548945.3, ] conns=[wye, wye, ] kVs=[7.62, 0.24, ] kVAs=[15, 15, ] taps=[1, 1, ] buses=[10548945.3, sec_10548945.3, ] conns=[wye, wye, ] kVs=[7.62, 0.24, ] kVAs=[15, 15, ] taps=[1, 1, ] wdg=1 %R=0.38195 RdcOhms=12.56736 wdg=2 %R=0.38195 RdcOhms=0.01246685 RdcOhms=0.01246685 %loadloss=0.7639 %noloadloss=0.0851 XHL=2.1 emerghkVA=21
New "Transformer.34084591-sb" phases=1 buses=[34084591.2, sec_34084591.2, ] conns=[wye, wye, ] kVs=[7.62, 0.24, ] kVAs=[26, 26, ] taps=[1, 1, ] buses=[34084591.2, sec_34084591.2, ] conns=[wye, wye, ] kVs=[7.62, 0.24, ] kVAs=[26, 26, ] taps=[1, 1, ] wdg=1 %R=0.369 RdcOhms=7.004577 wdg=2 %R=0.369 RdcOhms=0.006948554 RdcOhms=0.006948554 %loadloss=0.738 %noloadloss=0.1987 XHL=1.7532 emerghkVA=36.4
New "Transformer.34085402-sb" phases=1 buses=[34085402.2, sec_34085402.2, ] conns=[wye, wye, ] kVs=[7.62, 0.24, ] kVAs=[15, 15, ] taps=[1, 1, ] buses=[34085402.2, sec_34085402.2, ] conns=[wye, wye, ] kVs=[7.62, 0.24, ] kVAs=[15, 15, ] taps=[1, 1, ] wdg=1 %R=0.38195 RdcOhms=12.56736 wdg=2 %R=0.38195 RdcOhms=0.01246685 RdcOhms=0.01246685 %loadloss=0.7639 %noloadloss=0.0851 XHL=2.1 emerghkVA=21
New "Transformer.20014991-sc" phases=1 buses=[20014991.3, sec_20014991.3, ] conns=[wye, wye, ] kVs=[7.62, 0.24, ] kVAs=[37.5, 37.5, ] taps=[1, 1, ] buses=[20014991.3, sec_20014991.3, ] conns=[wye, wye, ] kVs=[7.62, 0.24, ] kVAs=[37.5, 37.5, ] taps=[1, 1, ] wdg=1 %R=0.4055 RdcOhms=5.336893 wdg=2 %R=0.4055 RdcOhms=0.005294208 RdcOhms=0.005294208 %loadloss=0.811 %noloadloss=0.184 XHL=1.765 emerghkVA=51.8
New "Transformer.34090007-sabc" phases=3 buses=[34090007, sec_34090007, ] conns=[wye, wye, ] kVs=[13.2, 0.48, ] kVAs=[45, 45, ] taps=[1, 1, ] buses=[34090007, sec_34090007, ] conns=[wye, wye, ] kVs=[13.2, 0.48, ] kVAs=[45, 45, ] taps=[1, 1, ] wdg=1 %R=0.38195 RdcOhms=4.190246 wdg=2 %R=0.38195 RdcOhms=0.005540821 RdcOhms=0.005540821 %loadloss=0.7639 %noloadloss=0.0851 XHL=2.1 emerghkVA=21
New "Transformer.10548933-sabc" phases=3 buses=[10548933, sec_10548933, ] conns=[wye, wye, ] kVs=[13.2, 0.48, ] kVAs=[150, 150, ] taps=[1, 1, ] buses=[10548933, sec_10548933, ] conns=[wye, wye, ] kVs=[13.2, 0.48, ] kVAs=[150, 150, ] taps=[1, 1, ] wdg=1 %R=0.4055 RdcOhms=1.334582 wdg=2 %R=0.4055 RdcOhms=0.001764736 RdcOhms=0.001764736 %loadloss=0.811 %noloadloss=0.184 XHL=1.765 emerghkVA=210
New "Transformer.10548947-sa" phases=1 buses=[10548947.1, sec_10548947.1, ] conns=[wye, wye, ] kVs=[7.62, 0.24, ] kVAs=[37.5, 37.5, ] taps=[1, 1, ] buses=[10548947.1, sec_10548947.1, ] conns=[wye, wye, ] kVs=[7.62, 0.24, ] kVAs=[37.5, 37.5, ] taps=[1, 1, ] wdg=1 %R=0.38195 RdcOhms=5.026945 wdg=2 %R=0.38195 RdcOhms=0.004986739 RdcOhms=0.004986739 %loadloss=0.7639 %noloadloss=0.0851 XHL=2.1 emerghkVA=51.8
New "Transformer.20014992-sa" phases=1 buses=[20014992.1, sec_20014992.1, ] conns=[wye, wye, ] kVs=[7.62, 0.24, ] kVAs=[15, 15, ] taps=[1, 1, ] buses=[20014992.1, sec_20014992.1, ] conns=[wye, wye, ] kVs=[7.62, 0.24, ] kVAs=[15, 15, ] taps=[1, 1, ] wdg=1 %R=0.38195 RdcOhms=12.56736 wdg=2 %R=0.38195 RdcOhms=0.01246685 RdcOhms=0.01246685 %loadloss=0.7639 %noloadloss=0.0851 XHL=2.1 emerghkVA=21
New "Transformer.10559735-sc" phases=1 buses=[10559735.3, sec_10559735.3, ] conns=[wye, wye, ] kVs=[7.62, 0.24, ] kVAs=[15, 15, ] taps=[1, 1, ] buses=[10559735.3, sec_10559735.3, ] conns=[wye, wye, ] kVs=[7.62, 0.24, ] kVAs=[15, 15, ] taps=[1, 1, ] wdg=1 %R=0.38195 RdcOhms=12.56736 wdg=2 %R=0.38195 RdcOhms=0.01246685 RdcOhms=0.01246685 %loadloss=0.7639 %noloadloss=0.0851 XHL=2.1 emerghkVA=21
New "Transformer.10558507-sabc" phases=3 buses=[10558507, sec_10558507, ] conns=[wye, wye, ] kVs=[13.2, 0.48, ] kVAs=[150, 150, ] taps=[1, 1, ] buses=[10558507, sec_10558507, ] conns=[wye, wye, ] kVs=[13.2, 0.48, ] kVAs=[150, 150, ] taps=[1, 1, ] wdg=1 %R=0.369 RdcOhms=1.214453 wdg=2 %R=0.369 RdcOhms=0.001605888 RdcOhms=0.001605888 %loadloss=0.738 %noloadloss=0.1987 XHL=1.7532 emerghkVA=70
New "Transformer.34090086-sc" phases=1 buses=[34090086.3, sec_34090086.3, ] conns=[wye, wye, ] kVs=[7.62, 0.24, ] kVAs=[37.5, 37.5, ] taps=[1, 1, ] buses=[34090086.3, sec_34090086.3, ] conns=[wye, wye, ] kVs=[7.62, 0.24, ] kVAs=[37.5, 37.5, ] taps=[1, 1, ] wdg=1 %R=0.369 RdcOhms=4.856506 wdg=2 %R=0.369 RdcOhms=0.004817664 RdcOhms=0.004817664 %loadloss=0.738 %noloadloss=0.1987 XHL=1.7532 emerghkVA=51.8
New "Transformer.34086299-sa" phases=1 buses=[34086299.1, sec_34086299.1, ] conns=[wye, wye, ] kVs=[7.62, 0.24, ] kVAs=[25, 25, ] taps=[1, 1, ] buses=[34086299.1, sec_34086299.1, ] conns=[wye, wye, ] kVs=[7.62, 0.24, ] kVAs=[25, 25, ] taps=[1, 1, ] wdg=1 %R=0.504 RdcOhms=9.949916 wdg=2 %R=0.504 RdcOhms=0.009870336 RdcOhms=0.009870336 %loadloss=1.008 %noloadloss=0.23 XHL=1.803 emerghkVA=35
New "Transformer.34086318-sb" phases=1 buses=[34086318.2, sec_34086318.2, ] conns=[wye, wye, ] kVs=[7.62, 0.24, ] kVAs=[15, 15, ] taps=[1, 1, ] buses=[34086318.2, sec_34086318.2, ] conns=[wye, wye, ] kVs=[7.62, 0.24, ] kVAs=[15, 15, ] taps=[1, 1, ] wdg=1 %R=0.504 RdcOhms=16.58319 wdg=2 %R=0.504 RdcOhms=0.01645056 RdcOhms=0.01645056 %loadloss=1.008 %noloadloss=0.23 XHL=1.803 emerghkVA=21
New "Transformer.34086324-sc" phases=1 buses=[34086324.3, sec_34086324.3, ] conns=[wye, wye, ] kVs=[7.62, 0.24, ] kVAs=[25, 25, ] taps=[1, 1, ] buses=[34086324.3, sec_34086324.3, ] conns=[wye, wye, ] kVs=[7.62, 0.24, ] kVAs=[25, 25, ] taps=[1, 1, ] wdg=1 %R=0.504 RdcOhms=9.949916 wdg=2 %R=0.504 RdcOhms=0.009870336 RdcOhms=0.009870336 %loadloss=1.008 %noloadloss=0.23 XHL=1.803 emerghkVA=35
New "Transformer.34086797-sb" phases=1 buses=[34086797.2, sec_34086797.2, ] conns=[wye, wye, ] kVs=[7.62, 0.24, ] kVAs=[25, 25, ] taps=[1, 1, ] buses=[34086797.2, sec_34086797.2, ] conns=[wye, wye, ] kVs=[7.62, 0.24, ] kVAs=[25, 25, ] taps=[1, 1, ] wdg=1 %R=0.38195 RdcOhms=7.540417 wdg=2 %R=0.38195 RdcOhms=0.007480109 RdcOhms=0.007480109 %loadloss=0.7639 %noloadloss=0.0851 XHL=2.1 emerghkVA=35
New "Transformer.10558471-sc" phases=1 buses=[10558471.3, sec_10558471.3, ] conns=[wye, wye, ] kVs=[7.62, 0.24, ] kVAs=[15, 15, ] taps=[1, 1, ] buses=[10558471.3, sec_10558471.3, ] conns=[wye, wye, ] kVs=[7.62, 0.24, ] kVAs=[15, 15, ] taps=[1, 1, ] wdg=1 %R=0.38195 RdcOhms=12.56736 wdg=2 %R=0.38195 RdcOhms=0.01246685 RdcOhms=0.01246685 %loadloss=0.7639 %noloadloss=0.0851 XHL=2.1 emerghkVA=21
New "Transformer.20028685-sb" phases=1 buses=[20028685.2, sec_20028685.2, ] conns=[wye, wye, ] kVs=[7.62, 0.24, ] kVAs=[25, 25, ] taps=[1, 1, ] buses=[20028685.2, sec_20028685.2, ] conns=[wye, wye, ] kVs=[7.62, 0.24, ] kVAs=[25, 25, ] taps=[1, 1, ] wdg=1 %R=0.38195 RdcOhms=7.540417 wdg=2 %R=0.38195 RdcOhms=0.007480109 RdcOhms=0.007480109 %loadloss=0.7639 %noloadloss=0.0851 XHL=2.1 emerghkVA=35
New "Transformer.34087254-sc" phases=1 buses=[34087254.3, sec_34087254.3, ] conns=[wye, wye, ] kVs=[7.62, 0.24, ] kVAs=[25, 25, ] taps=[1, 1, ] buses=[34087254.3, sec_34087254.3, ] conns=[wye, wye, ] kVs=[7.62, 0.24, ] kVAs=[25, 25, ] taps=[1, 1, ] wdg=1 %R=0.38195 RdcOhms=7.540417 wdg=2 %R=0.38195 RdcOhms=0.007480109 RdcOhms=0.007480109 %loadloss=0.7639 %noloadloss=0.0851 XHL=2.1 emerghkVA=35
New "Transformer.34087256-sb" phases=1 buses=[34087256.2, sec_34087256.2, ] conns=[wye, wye, ] kVs=[7.62, 0.24, ] kVAs=[15, 15, ] taps=[1, 1, ] buses=[34087256.2, sec_34087256.2, ] conns=[wye, wye, ] kVs=[7.62, 0.24, ] kVAs=[15, 15, ] taps=[1, 1, ] wdg=1 %R=0.504 RdcOhms=16.58319 wdg=2 %R=0.504 RdcOhms=0.01645056 RdcOhms=0.01645056 %loadloss=1.008 %noloadloss=0.23 XHL=1.803 emerghkVA=21
New "Transformer.34086796-sb" phases=1 buses=[34086796.2, sec_34086796.2, ] conns=[wye, wye, ] kVs=[7.62, 0.24, ] kVAs=[15, 15, ] taps=[1, 1, ] buses=[34086796.2, sec_34086796.2, ] conns=[wye, wye, ] kVs=[7.62, 0.24, ] kVAs=[15, 15, ] taps=[1, 1, ] wdg=1 %R=0.38195 RdcOhms=12.56736 wdg=2 %R=0.38195 RdcOhms=0.01246685 RdcOhms=0.01246685 %loadloss=0.7639 %noloadloss=0.0851 XHL=2.1 emerghkVA=21
New "Transformer.10558477-sc" phases=1 buses=[10558477.3, sec_10558477.3, ] conns=[wye, wye, ] kVs=[7.62, 0.24, ] kVAs=[15, 15, ] taps=[1, 1, ] buses=[10558477.3, sec_10558477.3, ] conns=[wye, wye, ] kVs=[7.62, 0.24, ] kVAs=[15, 15, ] taps=[1, 1, ] wdg=1 %R=0.38195 RdcOhms=12.56736 wdg=2 %R=0.38195 RdcOhms=0.01246685 RdcOhms=0.01246685 %loadloss=0.7639 %noloadloss=0.0851 XHL=2.1 emerghkVA=21
New "Transformer.10540312-sabc" phases=3 buses=[10540312, sec_10540312, ] conns=[wye, wye, ] kVs=[13.2, 0.48, ] kVAs=[500, 500, ] taps=[1, 1, ] buses=[10540312, sec_10540312, ] conns=[wye, wye, ] kVs=[13.2, 0.48, ] kVAs=[500, 500, ] taps=[1, 1, ] wdg=1 %R=0.3165 RdcOhms=0.3124994 wdg=2 %R=0.3165 RdcOhms=0.0004132224 RdcOhms=0.0004132224 %loadloss=0.633 %noloadloss=0.156 XHL=2.219 emerghkVA=700
New "Transformer.10540314-sabc" phases=3 buses=[10540314, sec_10540314, ] conns=[wye, wye, ] kVs=[13.2, 0.48, ] kVAs=[500, 500, ] taps=[1, 1, ] buses=[10540314, sec_10540314, ] conns=[wye, wye, ] kVs=[13.2, 0.48, ] kVAs=[500, 500, ] taps=[1, 1, ] wdg=1 %R=0.38195 RdcOhms=0.3771222 wdg=2 %R=0.38195 RdcOhms=0.0004986739 RdcOhms=0.0004986739 %loadloss=0.7639 %noloadloss=0.0851 XHL=2.1 emerghkVA=233.8
New "Transformer.10580150-sabc" phases=3 buses=[10580150, sec_10580150, ] conns=[wye, wye, ] kVs=[13.2, 0.48, ] kVAs=[500, 500, ] taps=[1, 1, ] buses=[10580150, sec_10580150, ] conns=[wye, wye, ] kVs=[13.2, 0.48, ] kVAs=[500, 500, ] taps=[1, 1, ] wdg=1 %R=0.369 RdcOhms=0.3643358 wdg=2 %R=0.369 RdcOhms=0.0004817664 RdcOhms=0.0004817664 %loadloss=0.738 %noloadloss=0.1987 XHL=1.7532 emerghkVA=700
New "Transformer.20396677-sabc" phases=3 buses=[20396677, sec_20396677, ] conns=[wye, wye, ] kVs=[13.2, 0.48, ] kVAs=[300, 300, ] taps=[1, 1, ] buses=[20396677, sec_20396677, ] conns=[wye, wye, ] kVs=[13.2, 0.48, ] kVAs=[300, 300, ] taps=[1, 1, ] wdg=1 %R=0.36185 RdcOhms=0.5954604 wdg=2 %R=0.36185 RdcOhms=0.0007873856 RdcOhms=0.0007873856 %loadloss=0.7237 %noloadloss=0.1524 XHL=2.1557 emerghkVA=140
New "Transformer.34054927-sa" phases=1 buses=[34054927.1, sec_34054927.1, ] conns=[wye, wye, ] kVs=[7.62, 0.24, ] kVAs=[50, 50, ] taps=[1, 1, ] buses=[34054927.1, sec_34054927.1, ] conns=[wye, wye, ] kVs=[7.62, 0.24, ] kVAs=[50, 50, ] taps=[1, 1, ] wdg=1 %R=0.4055 RdcOhms=4.002669 wdg=2 %R=0.4055 RdcOhms=0.003970656 RdcOhms=0.003970656 %loadloss=0.811 %noloadloss=0.184 XHL=1.765 emerghkVA=70
New "Transformer.34057775-sa" phases=1 buses=[34057775.1, sec_34057775.1, ] conns=[wye, wye, ] kVs=[7.62, 0.24, ] kVAs=[50, 50, ] taps=[1, 1, ] buses=[34057775.1, sec_34057775.1, ] conns=[wye, wye, ] kVs=[7.62, 0.24, ] kVAs=[50, 50, ] taps=[1, 1, ] wdg=1 %R=0.4055 RdcOhms=4.002669 wdg=2 %R=0.4055 RdcOhms=0.003970656 RdcOhms=0.003970656 %loadloss=0.811 %noloadloss=0.184 XHL=1.765 emerghkVA=70
New "Transformer.34054962-sa" phases=1 buses=[34054962.1, sec_34054962.1, ] conns=[wye, wye, ] kVs=[7.62, 0.24, ] kVAs=[50, 50, ] taps=[1, 1, ] buses=[34054962.1, sec_34054962.1, ] conns=[wye, wye, ] kVs=[7.62, 0.24, ] kVAs=[50, 50, ] taps=[1, 1, ] wdg=1 %R=0.4055 RdcOhms=4.002669 wdg=2 %R=0.4055 RdcOhms=0.003970656 RdcOhms=0.003970656 %loadloss=0.811 %noloadloss=0.184 XHL=1.765 emerghkVA=70
New "Transformer.34054976-sa" phases=1 buses=[34054976.1, sec_34054976.1, ] conns=[wye, wye, ] kVs=[7.62, 0.24, ] kVAs=[50, 50, ] taps=[1, 1, ] buses=[34054976.1, sec_34054976.1, ] conns=[wye, wye, ] kVs=[7.62, 0.24, ] kVAs=[50, 50, ] taps=[1, 1, ] wdg=1 %R=0.4055 RdcOhms=4.002669 wdg=2 %R=0.4055 RdcOhms=0.003970656 RdcOhms=0.003970656 %loadloss=0.811 %noloadloss=0.184 XHL=1.765 emerghkVA=70
New "Transformer.34054992-sa" phases=1 buses=[34054992.1, sec_34054992.1, ] conns=[wye, wye, ] kVs=[7.62, 0.24, ] kVAs=[50, 50, ] taps=[1, 1, ] buses=[34054992.1, sec_34054992.1, ] conns=[wye, wye, ] kVs=[7.62, 0.24, ] kVAs=[50, 50, ] taps=[1, 1, ] wdg=1 %R=0.4055 RdcOhms=4.002669 wdg=2 %R=0.4055 RdcOhms=0.003970656 RdcOhms=0.003970656 %loadloss=0.811 %noloadloss=0.184 XHL=1.765 emerghkVA=70
New "Transformer.34055522-sa" phases=1 buses=[34055522.1, sec_34055522.1, ] conns=[wye, wye, ] kVs=[7.62, 0.24, ] kVAs=[50, 50, ] taps=[1, 1, ] buses=[34055522.1, sec_34055522.1, ] conns=[wye, wye, ] kVs=[7.62, 0.24, ] kVAs=[50, 50, ] taps=[1, 1, ] wdg=1 %R=0.4055 RdcOhms=4.002669 wdg=2 %R=0.4055 RdcOhms=0.003970656 RdcOhms=0.003970656 %loadloss=0.811 %noloadloss=0.184 XHL=1.765 emerghkVA=70
New "Transformer.20344333-sa" phases=1 buses=[20344333.1, sec_20344333.1, ] conns=[wye, wye, ] kVs=[7.62, 0.24, ] kVAs=[50, 50, ] taps=[1, 1, ] buses=[20344333.1, sec_20344333.1, ] conns=[wye, wye, ] kVs=[7.62, 0.24, ] kVAs=[50, 50, ] taps=[1, 1, ] wdg=1 %R=0.369 RdcOhms=3.64238 wdg=2 %R=0.369 RdcOhms=0.003613248 RdcOhms=0.003613248 %loadloss=0.738 %noloadloss=0.1987 XHL=1.7532 emerghkVA=70
New "Transformer.34054980-sa" phases=1 buses=[34054980.1, sec_34054980.1, ] conns=[wye, wye, ] kVs=[7.62, 0.24, ] kVAs=[50, 50, ] taps=[1, 1, ] buses=[34054980.1, sec_34054980.1, ] conns=[wye, wye, ] kVs=[7.62, 0.24, ] kVAs=[50, 50, ] taps=[1, 1, ] wdg=1 %R=0.4055 RdcOhms=4.002669 wdg=2 %R=0.4055 RdcOhms=0.003970656 RdcOhms=0.003970656 %loadloss=0.811 %noloadloss=0.184 XHL=1.765 emerghkVA=70
New "Transformer.34054979-sa" phases=1 buses=[34054979.1, sec_34054979.1, ] conns=[wye, wye, ] kVs=[7.62, 0.24, ] kVAs=[50, 50, ] taps=[1, 1, ] buses=[34054979.1, sec_34054979.1, ] conns=[wye, wye, ] kVs=[7.62, 0.24, ] kVAs=[50, 50, ] taps=[1, 1, ] wdg=1 %R=0.4055 RdcOhms=4.002669 wdg=2 %R=0.4055 RdcOhms=0.003970656 RdcOhms=0.003970656 %loadloss=0.811 %noloadloss=0.184 XHL=1.765 emerghkVA=70
New "Transformer.34054978-sa" phases=1 buses=[34054978.1, sec_34054978.1, ] conns=[wye, wye, ] kVs=[7.62, 0.24, ] kVAs=[50, 50, ] taps=[1, 1, ] buses=[34054978.1, sec_34054978.1, ] conns=[wye, wye, ] kVs=[7.62, 0.24, ] kVAs=[50, 50, ] taps=[1, 1, ] wdg=1 %R=0.4055 RdcOhms=4.002669 wdg=2 %R=0.4055 RdcOhms=0.003970656 RdcOhms=0.003970656 %loadloss=0.811 %noloadloss=0.184 XHL=1.765 emerghkVA=70
New "Transformer.20344331-sc" phases=1 buses=[20344331.3, sec_20344331.3, ] conns=[wye, wye, ] kVs=[7.62, 0.24, ] kVAs=[25, 25, ] taps=[1, 1, ] buses=[20344331.3, sec_20344331.3, ] conns=[wye, wye, ] kVs=[7.62, 0.24, ] kVAs=[25, 25, ] taps=[1, 1, ] wdg=1 %R=0.504 RdcOhms=9.949916 wdg=2 %R=0.504 RdcOhms=0.009870336 RdcOhms=0.009870336 %loadloss=1.008 %noloadloss=0.23 XHL=1.803 emerghkVA=35
New "Transformer.34057797-sc" phases=1 buses=[34057797.3, sec_34057797.3, ] conns=[wye, wye, ] kVs=[7.62, 0.24, ] kVAs=[50, 50, ] taps=[1, 1, ] buses=[34057797.3, sec_34057797.3, ] conns=[wye, wye, ] kVs=[7.62, 0.24, ] kVAs=[50, 50, ] taps=[1, 1, ] wdg=1 %R=0.4055 RdcOhms=4.002669 wdg=2 %R=0.4055 RdcOhms=0.003970656 RdcOhms=0.003970656 %loadloss=0.811 %noloadloss=0.184 XHL=1.765 emerghkVA=70
New "Transformer.34054972-sc" phases=1 buses=[34054972.3, sec_34054972.3, ] conns=[wye, wye, ] kVs=[7.62, 0.24, ] kVAs=[50, 50, ] taps=[1, 1, ] buses=[34054972.3, sec_34054972.3, ] conns=[wye, wye, ] kVs=[7.62, 0.24, ] kVAs=[50, 50, ] taps=[1, 1, ] wdg=1 %R=0.369 RdcOhms=3.64238 wdg=2 %R=0.369 RdcOhms=0.003613248 RdcOhms=0.003613248 %loadloss=0.738 %noloadloss=0.1987 XHL=1.7532 emerghkVA=70
New "Transformer.34054971-sc" phases=1 buses=[34054971.3, sec_34054971.3, ] conns=[wye, wye, ] kVs=[7.62, 0.24, ] kVAs=[50, 50, ] taps=[1, 1, ] buses=[34054971.3, sec_34054971.3, ] conns=[wye, wye, ] kVs=[7.62, 0.24, ] kVAs=[50, 50, ] taps=[1, 1, ] wdg=1 %R=0.4055 RdcOhms=4.002669 wdg=2 %R=0.4055 RdcOhms=0.003970656 RdcOhms=0.003970656 %loadloss=0.811 %noloadloss=0.184 XHL=1.765 emerghkVA=70
New "Transformer.20344332-sb" phases=1 buses=[20344332.2, sec_20344332.2, ] conns=[wye, wye, ] kVs=[7.62, 0.24, ] kVAs=[50, 50, ] taps=[1, 1, ] buses=[20344332.2, sec_20344332.2, ] conns=[wye, wye, ] kVs=[7.62, 0.24, ] kVAs=[50, 50, ] taps=[1, 1, ] wdg=1 %R=0.4055 RdcOhms=4.002669 wdg=2 %R=0.4055 RdcOhms=0.003970656 RdcOhms=0.003970656 %loadloss=0.811 %noloadloss=0.184 XHL=1.765 emerghkVA=70
New "Transformer.34054975-sb" phases=1 buses=[34054975.2, sec_34054975.2, ] conns=[wye, wye, ] kVs=[7.62, 0.24, ] kVAs=[25, 25, ] taps=[1, 1, ] buses=[34054975.2, sec_34054975.2, ] conns=[wye, wye, ] kVs=[7.62, 0.24, ] kVAs=[25, 25, ] taps=[1, 1, ] wdg=1 %R=0.38195 RdcOhms=7.540417 wdg=2 %R=0.38195 RdcOhms=0.007480109 RdcOhms=0.007480109 %loadloss=0.7639 %noloadloss=0.0851 XHL=2.1 emerghkVA=35
New "Transformer.34057798-sb" phases=1 buses=[34057798.2, sec_34057798.2, ] conns=[wye, wye, ] kVs=[7.62, 0.24, ] kVAs=[50, 50, ] taps=[1, 1, ] buses=[34057798.2, sec_34057798.2, ] conns=[wye, wye, ] kVs=[7.62, 0.24, ] kVAs=[50, 50, ] taps=[1, 1, ] wdg=1 %R=0.369 RdcOhms=3.64238 wdg=2 %R=0.369 RdcOhms=0.003613248 RdcOhms=0.003613248 %loadloss=0.738 %noloadloss=0.1987 XHL=1.7532 emerghkVA=70
New "Transformer.34054974-sb" phases=1 buses=[34054974.2, sec_34054974.2, ] conns=[wye, wye, ] kVs=[7.62, 0.24, ] kVAs=[50, 50, ] taps=[1, 1, ] buses=[34054974.2, sec_34054974.2, ] conns=[wye, wye, ] kVs=[7.62, 0.24, ] kVAs=[50, 50, ] taps=[1, 1, ] wdg=1 %R=0.4055 RdcOhms=4.002669 wdg=2 %R=0.4055 RdcOhms=0.003970656 RdcOhms=0.003970656 %loadloss=0.811 %noloadloss=0.184 XHL=1.765 emerghkVA=70
New "Transformer.34086794-sb" phases=1 buses=[34086794.2, sec_34086794.2, ] conns=[wye, wye, ] kVs=[7.62, 0.24, ] kVAs=[15, 15, ] taps=[1, 1, ] buses=[34086794.2, sec_34086794.2, ] conns=[wye, wye, ] kVs=[7.62, 0.24, ] kVAs=[15, 15, ] taps=[1, 1, ] wdg=1 %R=0.3745 RdcOhms=12.32223 wdg=2 %R=0.3745 RdcOhms=0.01222368 RdcOhms=0.01222368 %loadloss=0.749 %noloadloss=0.171 XHL=1.773 emerghkVA=21
New "Transformer.20344372-sb" phases=1 buses=[20344372.2, sec_20344372.2, ] conns=[wye, wye, ] kVs=[7.62, 0.24, ] kVAs=[25, 25, ] taps=[1, 1, ] buses=[20344372.2, sec_20344372.2, ] conns=[wye, wye, ] kVs=[7.62, 0.24, ] kVAs=[25, 25, ] taps=[1, 1, ] wdg=1 %R=0.504 RdcOhms=9.949916 wdg=2 %R=0.504 RdcOhms=0.009870336 RdcOhms=0.009870336 %loadloss=1.008 %noloadloss=0.23 XHL=1.803 emerghkVA=35
New "Transformer.34054965-sb" phases=1 buses=[34054965.2, sec_34054965.2, ] conns=[wye, wye, ] kVs=[7.62, 0.24, ] kVAs=[50, 50, ] taps=[1, 1, ] buses=[34054965.2, sec_34054965.2, ] conns=[wye, wye, ] kVs=[7.62, 0.24, ] kVAs=[50, 50, ] taps=[1, 1, ] wdg=1 %R=0.369 RdcOhms=3.64238 wdg=2 %R=0.369 RdcOhms=0.003613248 RdcOhms=0.003613248 %loadloss=0.738 %noloadloss=0.1987 XHL=1.7532 emerghkVA=70
New "Transformer.10558481-sa" phases=1 buses=[10558481.1, sec_10558481.1, ] conns=[wye, wye, ] kVs=[7.62, 0.24, ] kVAs=[25, 25, ] taps=[1, 1, ] buses=[10558481.1, sec_10558481.1, ] conns=[wye, wye, ] kVs=[7.62, 0.24, ] kVAs=[25, 25, ] taps=[1, 1, ] wdg=1 %R=0.38195 RdcOhms=7.540417 wdg=2 %R=0.38195 RdcOhms=0.007480109 RdcOhms=0.007480109 %loadloss=0.7639 %noloadloss=0.0851 XHL=2.1 emerghkVA=35
New "Transformer.10558483-sb" phases=1 buses=[10558483.2, sec_10558483.2, ] conns=[wye, wye, ] kVs=[7.62, 0.24, ] kVAs=[25, 25, ] taps=[1, 1, ] buses=[10558483.2, sec_10558483.2, ] conns=[wye, wye, ] kVs=[7.62, 0.24, ] kVAs=[25, 25, ] taps=[1, 1, ] wdg=1 %R=0.38195 RdcOhms=7.540417 wdg=2 %R=0.38195 RdcOhms=0.007480109 RdcOhms=0.007480109 %loadloss=0.7639 %noloadloss=0.0851 XHL=2.1 emerghkVA=35
New "Transformer.34097396-sc" phases=1 buses=[34097396.3, sec_34097396.3, ] conns=[wye, wye, ] kVs=[7.62, 0.24, ] kVAs=[25, 25, ] taps=[1, 1, ] buses=[34097396.3, sec_34097396.3, ] conns=[wye, wye, ] kVs=[7.62, 0.24, ] kVAs=[25, 25, ] taps=[1, 1, ] wdg=1 %R=0.38195 RdcOhms=7.540417 wdg=2 %R=0.38195 RdcOhms=0.007480109 RdcOhms=0.007480109 %loadloss=0.7639 %noloadloss=0.0851 XHL=2.1 emerghkVA=35
New "Transformer.10558509-sb" phases=1 buses=[10558509.2, sec_10558509.2, ] conns=[wye, wye, ] kVs=[7.62, 0.24, ] kVAs=[15, 15, ] taps=[1, 1, ] buses=[10558509.2, sec_10558509.2, ] conns=[wye, wye, ] kVs=[7.62, 0.24, ] kVAs=[15, 15, ] taps=[1, 1, ] wdg=1 %R=0.504 RdcOhms=16.58319 wdg=2 %R=0.504 RdcOhms=0.01645056 RdcOhms=0.01645056 %loadloss=1.008 %noloadloss=0.23 XHL=1.803 emerghkVA=21
New "Transformer.10558551-sa" phases=1 buses=[10558551.1, sec_10558551.1, ] conns=[wye, wye, ] kVs=[7.62, 0.24, ] kVAs=[15, 15, ] taps=[1, 1, ] buses=[10558551.1, sec_10558551.1, ] conns=[wye, wye, ] kVs=[7.62, 0.24, ] kVAs=[15, 15, ] taps=[1, 1, ] wdg=1 %R=0.504 RdcOhms=16.58319 wdg=2 %R=0.504 RdcOhms=0.01645056 RdcOhms=0.01645056 %loadloss=1.008 %noloadloss=0.23 XHL=1.803 emerghkVA=21
New "Transformer.10558553-sa" phases=1 buses=[10558553.1, sec_10558553.1, ] conns=[wye, wye, ] kVs=[7.62, 0.24, ] kVAs=[37.5, 37.5, ] taps=[1, 1, ] buses=[10558553.1, sec_10558553.1, ] conns=[wye, wye, ] kVs=[7.62, 0.24, ] kVAs=[37.5, 37.5, ] taps=[1, 1, ] wdg=1 %R=0.504 RdcOhms=6.633277 wdg=2 %R=0.504 RdcOhms=0.006580224 RdcOhms=0.006580224 %loadloss=1.008 %noloadloss=0.23 XHL=1.803 emerghkVA=51.8
New "Transformer.10558550-sa" phases=1 buses=[10558550.1, sec_10558550.1, ] conns=[wye, wye, ] kVs=[7.62, 0.24, ] kVAs=[15, 15, ] taps=[1, 1, ] buses=[10558550.1, sec_10558550.1, ] conns=[wye, wye, ] kVs=[7.62, 0.24, ] kVAs=[15, 15, ] taps=[1, 1, ] wdg=1 %R=0.504 RdcOhms=16.58319 wdg=2 %R=0.504 RdcOhms=0.01645056 RdcOhms=0.01645056 %loadloss=1.008 %noloadloss=0.23 XHL=1.803 emerghkVA=21
New "Transformer.34096116-sb" phases=1 buses=[34096116.2, sec_34096116.2, ] conns=[wye, wye, ] kVs=[7.62, 0.24, ] kVAs=[25, 25, ] taps=[1, 1, ] buses=[34096116.2, sec_34096116.2, ] conns=[wye, wye, ] kVs=[7.62, 0.24, ] kVAs=[25, 25, ] taps=[1, 1, ] wdg=1 %R=0.504 RdcOhms=9.949916 wdg=2 %R=0.504 RdcOhms=0.009870336 RdcOhms=0.009870336 %loadloss=1.008 %noloadloss=0.23 XHL=1.803 emerghkVA=35
New "Transformer.34086801-sc" phases=1 buses=[34086801.3, sec_34086801.3, ] conns=[wye, wye, ] kVs=[7.62, 0.24, ] kVAs=[10, 10, ] taps=[1, 1, ] buses=[34086801.3, sec_34086801.3, ] conns=[wye, wye, ] kVs=[7.62, 0.24, ] kVAs=[10, 10, ] taps=[1, 1, ] wdg=1 %R=0.511 RdcOhms=25.22027 wdg=2 %R=0.511 RdcOhms=0.02501856 RdcOhms=0.02501856 %loadloss=1.022 %noloadloss=0.3221 XHL=1.707 emerghkVA=14
New "Transformer.10558562-sc" phases=1 buses=[10558562.3, sec_10558562.3, ] conns=[wye, wye, ] kVs=[7.62, 0.24, ] kVAs=[25, 25, ] taps=[1, 1, ] buses=[10558562.3, sec_10558562.3, ] conns=[wye, wye, ] kVs=[7.62, 0.24, ] kVAs=[25, 25, ] taps=[1, 1, ] wdg=1 %R=0.38195 RdcOhms=7.540417 wdg=2 %R=0.38195 RdcOhms=0.007480109 RdcOhms=0.007480109 %loadloss=0.7639 %noloadloss=0.0851 XHL=2.1 emerghkVA=35
New "Transformer.34096115-sb" phases=1 buses=[34096115.2, sec_34096115.2, ] conns=[wye, wye, ] kVs=[7.62, 0.24, ] kVAs=[15, 15, ] taps=[1, 1, ] buses=[34096115.2, sec_34096115.2, ] conns=[wye, wye, ] kVs=[7.62, 0.24, ] kVAs=[15, 15, ] taps=[1, 1, ] wdg=1 %R=0.504 RdcOhms=16.58319 wdg=2 %R=0.504 RdcOhms=0.01645056 RdcOhms=0.01645056 %loadloss=1.008 %noloadloss=0.23 XHL=1.803 emerghkVA=21
New "Transformer.10558545-sb" phases=1 buses=[10558545.2, sec_10558545.2, ] conns=[wye, wye, ] kVs=[7.62, 0.24, ] kVAs=[15, 15, ] taps=[1, 1, ] buses=[10558545.2, sec_10558545.2, ] conns=[wye, wye, ] kVs=[7.62, 0.24, ] kVAs=[15, 15, ] taps=[1, 1, ] wdg=1 %R=0.5765 RdcOhms=18.96867 wdg=2 %R=0.5765 RdcOhms=0.01881696 RdcOhms=0.01881696 %loadloss=1.153 %noloadloss=0.318 XHL=1.888 emerghkVA=21
New "Transformer.34096113-sb" phases=1 buses=[34096113.2, sec_34096113.2, ] conns=[wye, wye, ] kVs=[7.62, 0.24, ] kVAs=[25, 25, ] taps=[1, 1, ] buses=[34096113.2, sec_34096113.2, ] conns=[wye, wye, ] kVs=[7.62, 0.24, ] kVAs=[25, 25, ] taps=[1, 1, ] wdg=1 %R=0.38195 RdcOhms=7.540417 wdg=2 %R=0.38195 RdcOhms=0.007480109 RdcOhms=0.007480109 %loadloss=0.7639 %noloadloss=0.0851 XHL=2.1 emerghkVA=35
New "Transformer.10558544-sb" phases=1 buses=[10558544.2, sec_10558544.2, ] conns=[wye, wye, ] kVs=[7.62, 0.24, ] kVAs=[25, 25, ] taps=[1, 1, ] buses=[10558544.2, sec_10558544.2, ] conns=[wye, wye, ] kVs=[7.62, 0.24, ] kVAs=[25, 25, ] taps=[1, 1, ] wdg=1 %R=0.504 RdcOhms=9.949916 wdg=2 %R=0.504 RdcOhms=0.009870336 RdcOhms=0.009870336 %loadloss=1.008 %noloadloss=0.23 XHL=1.803 emerghkVA=35
New "Transformer.10526890-sabc" phases=3 buses=[10526890, sec_10526890, ] conns=[wye, wye, ] kVs=[13.2, 0.48, ] kVAs=[112.5, 112.5, ] taps=[1, 1, ] buses=[10526890, sec_10526890, ] conns=[wye, wye, ] kVs=[13.2, 0.48, ] kVAs=[112.5, 112.5, ] taps=[1, 1, ] wdg=1 %R=0.504 RdcOhms=2.211686 wdg=2 %R=0.504 RdcOhms=0.002924544 RdcOhms=0.002924544 %loadloss=1.008 %noloadloss=0.23 XHL=1.803 emerghkVA=51.8
New "Transformer.34086410-sb" phases=1 buses=[34086410.2, sec_34086410.2, ] conns=[wye, wye, ] kVs=[7.62, 0.24, ] kVAs=[15, 15, ] taps=[1, 1, ] buses=[34086410.2, sec_34086410.2, ] conns=[wye, wye, ] kVs=[7.62, 0.24, ] kVAs=[15, 15, ] taps=[1, 1, ] wdg=1 %R=0.36185 RdcOhms=11.90601 wdg=2 %R=0.36185 RdcOhms=0.01181078 RdcOhms=0.01181078 %loadloss=0.7237 %noloadloss=0.1524 XHL=2.1557 emerghkVA=21
New "Transformer.10559390-sa" phases=1 buses=[10559390.1, sec_10559390.1, ] conns=[wye, wye, ] kVs=[7.62, 0.24, ] kVAs=[25, 25, ] taps=[1, 1, ] buses=[10559390.1, sec_10559390.1, ] conns=[wye, wye, ] kVs=[7.62, 0.24, ] kVAs=[25, 25, ] taps=[1, 1, ] wdg=1 %R=0.504 RdcOhms=9.949916 wdg=2 %R=0.504 RdcOhms=0.009870336 RdcOhms=0.009870336 %loadloss=1.008 %noloadloss=0.23 XHL=1.803 emerghkVA=35
New "Transformer.34086402-sa" phases=1 buses=[34086402.1, sec_34086402.1, ] conns=[wye, wye, ] kVs=[7.62, 0.24, ] kVAs=[15, 15, ] taps=[1, 1, ] buses=[34086402.1, sec_34086402.1, ] conns=[wye, wye, ] kVs=[7.62, 0.24, ] kVAs=[15, 15, ] taps=[1, 1, ] wdg=1 %R=0.504 RdcOhms=16.58319 wdg=2 %R=0.504 RdcOhms=0.01645056 RdcOhms=0.01645056 %loadloss=1.008 %noloadloss=0.23 XHL=1.803 emerghkVA=21
New "Transformer.10559057-sa" phases=1 buses=[10559057.1, sec_10559057.1, ] conns=[wye, wye, ] kVs=[7.62, 0.24, ] kVAs=[25, 25, ] taps=[1, 1, ] buses=[10559057.1, sec_10559057.1, ] conns=[wye, wye, ] kVs=[7.62, 0.24, ] kVAs=[25, 25, ] taps=[1, 1, ] wdg=1 %R=0.504 RdcOhms=9.949916 wdg=2 %R=0.504 RdcOhms=0.009870336 RdcOhms=0.009870336 %loadloss=1.008 %noloadloss=0.23 XHL=1.803 emerghkVA=35
New "Transformer.10559090-sa" phases=1 buses=[10559090.1, sec_10559090.1, ] conns=[wye, wye, ] kVs=[7.62, 0.24, ] kVAs=[37.5, 37.5, ] taps=[1, 1, ] buses=[10559090.1, sec_10559090.1, ] conns=[wye, wye, ] kVs=[7.62, 0.24, ] kVAs=[37.5, 37.5, ] taps=[1, 1, ] wdg=1 %R=0.504 RdcOhms=6.633277 wdg=2 %R=0.504 RdcOhms=0.006580224 RdcOhms=0.006580224 %loadloss=1.008 %noloadloss=0.23 XHL=1.803 emerghkVA=51.8
New "Transformer.34086306-sa" phases=1 buses=[34086306.1, sec_34086306.1, ] conns=[wye, wye, ] kVs=[7.62, 0.24, ] kVAs=[25, 25, ] taps=[1, 1, ] buses=[34086306.1, sec_34086306.1, ] conns=[wye, wye, ] kVs=[7.62, 0.24, ] kVAs=[25, 25, ] taps=[1, 1, ] wdg=1 %R=0.38195 RdcOhms=7.540417 wdg=2 %R=0.38195 RdcOhms=0.007480109 RdcOhms=0.007480109 %loadloss=0.7639 %noloadloss=0.0851 XHL=2.1 emerghkVA=35
New "Transformer.10559387-sa" phases=1 buses=[10559387.1, sec_10559387.1, ] conns=[wye, wye, ] kVs=[7.62, 0.24, ] kVAs=[15, 15, ] taps=[1, 1, ] buses=[10559387.1, sec_10559387.1, ] conns=[wye, wye, ] kVs=[7.62, 0.24, ] kVAs=[15, 15, ] taps=[1, 1, ] wdg=1 %R=0.504 RdcOhms=16.58319 wdg=2 %R=0.504 RdcOhms=0.01645056 RdcOhms=0.01645056 %loadloss=1.008 %noloadloss=0.23 XHL=1.803 emerghkVA=21
New "Transformer.34086307-sa" phases=1 buses=[34086307.1, sec_34086307.1, ] conns=[wye, wye, ] kVs=[7.62, 0.24, ] kVAs=[15, 15, ] taps=[1, 1, ] buses=[34086307.1, sec_34086307.1, ] conns=[wye, wye, ] kVs=[7.62, 0.24, ] kVAs=[15, 15, ] taps=[1, 1, ] wdg=1 %R=0.38195 RdcOhms=12.56736 wdg=2 %R=0.38195 RdcOhms=0.01246685 RdcOhms=0.01246685 %loadloss=0.7639 %noloadloss=0.0851 XHL=2.1 emerghkVA=21
New "Transformer.10559392-sa" phases=1 buses=[10559392.1, sec_10559392.1, ] conns=[wye, wye, ] kVs=[7.62, 0.24, ] kVAs=[25, 25, ] taps=[1, 1, ] buses=[10559392.1, sec_10559392.1, ] conns=[wye, wye, ] kVs=[7.62, 0.24, ] kVAs=[25, 25, ] taps=[1, 1, ] wdg=1 %R=0.504 RdcOhms=9.949916 wdg=2 %R=0.504 RdcOhms=0.009870336 RdcOhms=0.009870336 %loadloss=1.008 %noloadloss=0.23 XHL=1.803 emerghkVA=35
New "Transformer.34086309-sa" phases=1 buses=[34086309.1, sec_34086309.1, ] conns=[wye, wye, ] kVs=[7.62, 0.24, ] kVAs=[15, 15, ] taps=[1, 1, ] buses=[34086309.1, sec_34086309.1, ] conns=[wye, wye, ] kVs=[7.62, 0.24, ] kVAs=[15, 15, ] taps=[1, 1, ] wdg=1 %R=0.38195 RdcOhms=12.56736 wdg=2 %R=0.38195 RdcOhms=0.01246685 RdcOhms=0.01246685 %loadloss=0.7639 %noloadloss=0.0851 XHL=2.1 emerghkVA=21
New "Transformer.10559393-sa" phases=1 buses=[10559393.1, sec_10559393.1, ] conns=[wye, wye, ] kVs=[7.62, 0.24, ] kVAs=[15, 15, ] taps=[1, 1, ] buses=[10559393.1, sec_10559393.1, ] conns=[wye, wye, ] kVs=[7.62, 0.24, ] kVAs=[15, 15, ] taps=[1, 1, ] wdg=1 %R=0.511 RdcOhms=16.81351 wdg=2 %R=0.511 RdcOhms=0.01667904 RdcOhms=0.01667904 %loadloss=1.022 %noloadloss=0.3221 XHL=1.707 emerghkVA=21
New "Transformer.10559275-sa" phases=1 buses=[10559275.1, sec_10559275.1, ] conns=[wye, wye, ] kVs=[7.62, 0.24, ] kVAs=[15, 15, ] taps=[1, 1, ] buses=[10559275.1, sec_10559275.1, ] conns=[wye, wye, ] kVs=[7.62, 0.24, ] kVAs=[15, 15, ] taps=[1, 1, ] wdg=1 %R=0.4055 RdcOhms=13.34223 wdg=2 %R=0.4055 RdcOhms=0.01323552 RdcOhms=0.01323552 %loadloss=0.811 %noloadloss=0.184 XHL=1.765 emerghkVA=21
New "Transformer.10559451-sa" phases=1 buses=[10559451.1, sec_10559451.1, ] conns=[wye, wye, ] kVs=[7.62, 0.24, ] kVAs=[15, 15, ] taps=[1, 1, ] buses=[10559451.1, sec_10559451.1, ] conns=[wye, wye, ] kVs=[7.62, 0.24, ] kVAs=[15, 15, ] taps=[1, 1, ] wdg=1 %R=0.511 RdcOhms=16.81351 wdg=2 %R=0.511 RdcOhms=0.01667904 RdcOhms=0.01667904 %loadloss=1.022 %noloadloss=0.3221 XHL=1.707 emerghkVA=21
New "Transformer.10559487-sa" phases=1 buses=[10559487.1, sec_10559487.1, ] conns=[wye, wye, ] kVs=[7.62, 0.24, ] kVAs=[25, 25, ] taps=[1, 1, ] buses=[10559487.1, sec_10559487.1, ] conns=[wye, wye, ] kVs=[7.62, 0.24, ] kVAs=[25, 25, ] taps=[1, 1, ] wdg=1 %R=0.504 RdcOhms=9.949916 wdg=2 %R=0.504 RdcOhms=0.009870336 RdcOhms=0.009870336 %loadloss=1.008 %noloadloss=0.23 XHL=1.803 emerghkVA=35
New "Transformer.34095281-sa" phases=1 buses=[34095281.1, sec_34095281.1, ] conns=[wye, wye, ] kVs=[7.62, 0.24, ] kVAs=[25, 25, ] taps=[1, 1, ] buses=[34095281.1, sec_34095281.1, ] conns=[wye, wye, ] kVs=[7.62, 0.24, ] kVAs=[25, 25, ] taps=[1, 1, ] wdg=1 %R=0.504 RdcOhms=9.949916 wdg=2 %R=0.504 RdcOhms=0.009870336 RdcOhms=0.009870336 %loadloss=1.008 %noloadloss=0.23 XHL=1.803 emerghkVA=35
New "Transformer.10559407-sa" phases=1 buses=[10559407.1, sec_10559407.1, ] conns=[wye, wye, ] kVs=[7.62, 0.24, ] kVAs=[15, 15, ] taps=[1, 1, ] buses=[10559407.1, sec_10559407.1, ] conns=[wye, wye, ] kVs=[7.62, 0.24, ] kVAs=[15, 15, ] taps=[1, 1, ] wdg=1 %R=0.369 RdcOhms=12.14127 wdg=2 %R=0.369 RdcOhms=0.01204416 RdcOhms=0.01204416 %loadloss=0.738 %noloadloss=0.1987 XHL=1.7532 emerghkVA=21
New "Transformer.34097297-sa" phases=1 buses=[34097297.1, sec_34097297.1, ] conns=[wye, wye, ] kVs=[7.62, 0.24, ] kVAs=[15, 15, ] taps=[1, 1, ] buses=[34097297.1, sec_34097297.1, ] conns=[wye, wye, ] kVs=[7.62, 0.24, ] kVAs=[15, 15, ] taps=[1, 1, ] wdg=1 %R=0.4055 RdcOhms=13.34223 wdg=2 %R=0.4055 RdcOhms=0.01323552 RdcOhms=0.01323552 %loadloss=0.811 %noloadloss=0.184 XHL=1.765 emerghkVA=21
New "Transformer.34096668-sa" phases=1 buses=[34096668.1, sec_34096668.1, ] conns=[wye, wye, ] kVs=[7.62, 0.24, ] kVAs=[15, 15, ] taps=[1, 1, ] buses=[34096668.1, sec_34096668.1, ] conns=[wye, wye, ] kVs=[7.62, 0.24, ] kVAs=[15, 15, ] taps=[1, 1, ] wdg=1 %R=0.38195 RdcOhms=12.56736 wdg=2 %R=0.38195 RdcOhms=0.01246685 RdcOhms=0.01246685 %loadloss=0.7639 %noloadloss=0.0851 XHL=2.1 emerghkVA=21
New "Transformer.10552942-sa" phases=1 buses=[10552942.1, sec_10552942.1, ] conns=[wye, wye, ] kVs=[7.62, 0.24, ] kVAs=[15, 15, ] taps=[1, 1, ] buses=[10552942.1, sec_10552942.1, ] conns=[wye, wye, ] kVs=[7.62, 0.24, ] kVAs=[15, 15, ] taps=[1, 1, ] wdg=1 %R=0.38195 RdcOhms=12.56736 wdg=2 %R=0.38195 RdcOhms=0.01246685 RdcOhms=0.01246685 %loadloss=0.7639 %noloadloss=0.0851 XHL=2.1 emerghkVA=21
New "Transformer.10559398-sa" phases=1 buses=[10559398.1, sec_10559398.1, ] conns=[wye, wye, ] kVs=[7.62, 0.24, ] kVAs=[25, 25, ] taps=[1, 1, ] buses=[10559398.1, sec_10559398.1, ] conns=[wye, wye, ] kVs=[7.62, 0.24, ] kVAs=[25, 25, ] taps=[1, 1, ] wdg=1 %R=0.504 RdcOhms=9.949916 wdg=2 %R=0.504 RdcOhms=0.009870336 RdcOhms=0.009870336 %loadloss=1.008 %noloadloss=0.23 XHL=1.803 emerghkVA=35
New "Transformer.10571603-sa" phases=1 buses=[10571603.1, sec_10571603.1, ] conns=[wye, wye, ] kVs=[7.62, 0.24, ] kVAs=[50, 50, ] taps=[1, 1, ] buses=[10571603.1, sec_10571603.1, ] conns=[wye, wye, ] kVs=[7.62, 0.24, ] kVAs=[50, 50, ] taps=[1, 1, ] wdg=1 %R=0.4055 RdcOhms=4.002669 wdg=2 %R=0.4055 RdcOhms=0.003970656 RdcOhms=0.003970656 %loadloss=0.811 %noloadloss=0.184 XHL=1.765 emerghkVA=70
New "Transformer.10529606-sa" phases=1 buses=[10529606.1, sec_10529606.1, ] conns=[wye, wye, ] kVs=[7.62, 0.24, ] kVAs=[15, 15, ] taps=[1, 1, ] buses=[10529606.1, sec_10529606.1, ] conns=[wye, wye, ] kVs=[7.62, 0.24, ] kVAs=[15, 15, ] taps=[1, 1, ] wdg=1 %R=0.38195 RdcOhms=12.56736 wdg=2 %R=0.38195 RdcOhms=0.01246685 RdcOhms=0.01246685 %loadloss=0.7639 %noloadloss=0.0851 XHL=2.1 emerghkVA=21
New "Transformer.10529607-sa" phases=1 buses=[10529607.1, sec_10529607.1, ] conns=[wye, wye, ] kVs=[7.62, 0.24, ] kVAs=[15, 15, ] taps=[1, 1, ] buses=[10529607.1, sec_10529607.1, ] conns=[wye, wye, ] kVs=[7.62, 0.24, ] kVAs=[15, 15, ] taps=[1, 1, ] wdg=1 %R=0.511 RdcOhms=16.81351 wdg=2 %R=0.511 RdcOhms=0.01667904 RdcOhms=0.01667904 %loadloss=1.022 %noloadloss=0.3221 XHL=1.707 emerghkVA=21
New "Transformer.10559391-sa" phases=1 buses=[10559391.1, sec_10559391.1, ] conns=[wye, wye, ] kVs=[7.62, 0.24, ] kVAs=[25, 25, ] taps=[1, 1, ] buses=[10559391.1, sec_10559391.1, ] conns=[wye, wye, ] kVs=[7.62, 0.24, ] kVAs=[25, 25, ] taps=[1, 1, ] wdg=1 %R=0.38195 RdcOhms=7.540417 wdg=2 %R=0.38195 RdcOhms=0.007480109 RdcOhms=0.007480109 %loadloss=0.7639 %noloadloss=0.0851 XHL=2.1 emerghkVA=35
New "Transformer.10529608-sa" phases=1 buses=[10529608.1, sec_10529608.1, ] conns=[wye, wye, ] kVs=[7.62, 0.24, ] kVAs=[15, 15, ] taps=[1, 1, ] buses=[10529608.1, sec_10529608.1, ] conns=[wye, wye, ] kVs=[7.62, 0.24, ] kVAs=[15, 15, ] taps=[1, 1, ] wdg=1 %R=0.38195 RdcOhms=12.56736 wdg=2 %R=0.38195 RdcOhms=0.01246685 RdcOhms=0.01246685 %loadloss=0.7639 %noloadloss=0.0851 XHL=2.1 emerghkVA=21
New "Transformer.34086310-sa" phases=1 buses=[34086310.1, sec_34086310.1, ] conns=[wye, wye, ] kVs=[7.62, 0.24, ] kVAs=[15, 15, ] taps=[1, 1, ] buses=[34086310.1, sec_34086310.1, ] conns=[wye, wye, ] kVs=[7.62, 0.24, ] kVAs=[15, 15, ] taps=[1, 1, ] wdg=1 %R=0.504 RdcOhms=16.58319 wdg=2 %R=0.504 RdcOhms=0.01645056 RdcOhms=0.01645056 %loadloss=1.008 %noloadloss=0.23 XHL=1.803 emerghkVA=21
New "Transformer.10559394-sa" phases=1 buses=[10559394.1, sec_10559394.1, ] conns=[wye, wye, ] kVs=[7.62, 0.24, ] kVAs=[25, 25, ] taps=[1, 1, ] buses=[10559394.1, sec_10559394.1, ] conns=[wye, wye, ] kVs=[7.62, 0.24, ] kVAs=[25, 25, ] taps=[1, 1, ] wdg=1 %R=0.38195 RdcOhms=7.540417 wdg=2 %R=0.38195 RdcOhms=0.007480109 RdcOhms=0.007480109 %loadloss=0.7639 %noloadloss=0.0851 XHL=2.1 emerghkVA=35
New "Transformer.10559385-sa" phases=1 buses=[10559385.1, sec_10559385.1, ] conns=[wye, wye, ] kVs=[7.62, 0.24, ] kVAs=[25, 25, ] taps=[1, 1, ] buses=[10559385.1, sec_10559385.1, ] conns=[wye, wye, ] kVs=[7.62, 0.24, ] kVAs=[25, 25, ] taps=[1, 1, ] wdg=1 %R=0.504 RdcOhms=9.949916 wdg=2 %R=0.504 RdcOhms=0.009870336 RdcOhms=0.009870336 %loadloss=1.008 %noloadloss=0.23 XHL=1.803 emerghkVA=35
New "Transformer.10559396-sa" phases=1 buses=[10559396.1, sec_10559396.1, ] conns=[wye, wye, ] kVs=[7.62, 0.24, ] kVAs=[25, 25, ] taps=[1, 1, ] buses=[10559396.1, sec_10559396.1, ] conns=[wye, wye, ] kVs=[7.62, 0.24, ] kVAs=[25, 25, ] taps=[1, 1, ] wdg=1 %R=0.504 RdcOhms=9.949916 wdg=2 %R=0.504 RdcOhms=0.009870336 RdcOhms=0.009870336 %loadloss=1.008 %noloadloss=0.23 XHL=1.803 emerghkVA=35
New "Transformer.10559386-sa" phases=1 buses=[10559386.1, sec_10559386.1, ] conns=[wye, wye, ] kVs=[7.62, 0.24, ] kVAs=[25, 25, ] taps=[1, 1, ] buses=[10559386.1, sec_10559386.1, ] conns=[wye, wye, ] kVs=[7.62, 0.24, ] kVAs=[25, 25, ] taps=[1, 1, ] wdg=1 %R=0.38195 RdcOhms=7.540417 wdg=2 %R=0.38195 RdcOhms=0.007480109 RdcOhms=0.007480109 %loadloss=0.7639 %noloadloss=0.0851 XHL=2.1 emerghkVA=35
New "Transformer.10559389-sa" phases=1 buses=[10559389.1, sec_10559389.1, ] conns=[wye, wye, ] kVs=[7.62, 0.24, ] kVAs=[15, 15, ] taps=[1, 1, ] buses=[10559389.1, sec_10559389.1, ] conns=[wye, wye, ] kVs=[7.62, 0.24, ] kVAs=[15, 15, ] taps=[1, 1, ] wdg=1 %R=0.369 RdcOhms=12.14127 wdg=2 %R=0.369 RdcOhms=0.01204416 RdcOhms=0.01204416 %loadloss=0.738 %noloadloss=0.1987 XHL=1.7532 emerghkVA=21
New "Transformer.10558547-sc" phases=1 buses=[10558547.3, sec_10558547.3, ] conns=[wye, wye, ] kVs=[7.62, 0.24, ] kVAs=[75, 75, ] taps=[1, 1, ] buses=[10558547.3, sec_10558547.3, ] conns=[wye, wye, ] kVs=[7.62, 0.24, ] kVAs=[75, 75, ] taps=[1, 1, ] wdg=1 %R=0.3789 RdcOhms=2.493401 wdg=2 %R=0.3789 RdcOhms=0.002473459 RdcOhms=0.002473459 %loadloss=0.7578 %noloadloss=0.1348 XHL=2.41 emerghkVA=105
New "Transformer.10532911-sc" phases=1 buses=[10532911.3, sec_10532911.3, ] conns=[wye, wye, ] kVs=[7.62, 0.24, ] kVAs=[15, 15, ] taps=[1, 1, ] buses=[10532911.3, sec_10532911.3, ] conns=[wye, wye, ] kVs=[7.62, 0.24, ] kVAs=[15, 15, ] taps=[1, 1, ] wdg=1 %R=0.4055 RdcOhms=13.34223 wdg=2 %R=0.4055 RdcOhms=0.01323552 RdcOhms=0.01323552 %loadloss=0.811 %noloadloss=0.184 XHL=1.765 emerghkVA=21
New "Transformer.34086802-sc" phases=1 buses=[34086802.3, sec_34086802.3, ] conns=[wye, wye, ] kVs=[7.62, 0.24, ] kVAs=[15, 15, ] taps=[1, 1, ] buses=[34086802.3, sec_34086802.3, ] conns=[wye, wye, ] kVs=[7.62, 0.24, ] kVAs=[15, 15, ] taps=[1, 1, ] wdg=1 %R=0.38195 RdcOhms=12.56736 wdg=2 %R=0.38195 RdcOhms=0.01246685 RdcOhms=0.01246685 %loadloss=0.7639 %noloadloss=0.0851 XHL=2.1 emerghkVA=21
New "Transformer.34086300-sc" phases=1 buses=[34086300.3, sec_34086300.3, ] conns=[wye, wye, ] kVs=[7.62, 0.24, ] kVAs=[25, 25, ] taps=[1, 1, ] buses=[34086300.3, sec_34086300.3, ] conns=[wye, wye, ] kVs=[7.62, 0.24, ] kVAs=[25, 25, ] taps=[1, 1, ] wdg=1 %R=0.504 RdcOhms=9.949916 wdg=2 %R=0.504 RdcOhms=0.009870336 RdcOhms=0.009870336 %loadloss=1.008 %noloadloss=0.23 XHL=1.803 emerghkVA=35
New "Transformer.10558523-sb" phases=1 buses=[10558523.2, sec_10558523.2, ] conns=[wye, wye, ] kVs=[7.62, 0.24, ] kVAs=[15, 15, ] taps=[1, 1, ] buses=[10558523.2, sec_10558523.2, ] conns=[wye, wye, ] kVs=[7.62, 0.24, ] kVAs=[15, 15, ] taps=[1, 1, ] wdg=1 %R=0.504 RdcOhms=16.58319 wdg=2 %R=0.504 RdcOhms=0.01645056 RdcOhms=0.01645056 %loadloss=1.008 %noloadloss=0.23 XHL=1.803 emerghkVA=21
New "Transformer.34086400-sc" phases=1 buses=[34086400.3, sec_34086400.3, ] conns=[wye, wye, ] kVs=[7.62, 0.24, ] kVAs=[15, 15, ] taps=[1, 1, ] buses=[34086400.3, sec_34086400.3, ] conns=[wye, wye, ] kVs=[7.62, 0.24, ] kVAs=[15, 15, ] taps=[1, 1, ] wdg=1 %R=0.38195 RdcOhms=12.56736 wdg=2 %R=0.38195 RdcOhms=0.01246685 RdcOhms=0.01246685 %loadloss=0.7639 %noloadloss=0.0851 XHL=2.1 emerghkVA=21
New "Transformer.10558573-sc" phases=1 buses=[10558573.3, sec_10558573.3, ] conns=[wye, wye, ] kVs=[7.62, 0.24, ] kVAs=[50, 50, ] taps=[1, 1, ] buses=[10558573.3, sec_10558573.3, ] conns=[wye, wye, ] kVs=[7.62, 0.24, ] kVAs=[50, 50, ] taps=[1, 1, ] wdg=1 %R=0.4055 RdcOhms=4.002669 wdg=2 %R=0.4055 RdcOhms=0.003970656 RdcOhms=0.003970656 %loadloss=0.811 %noloadloss=0.184 XHL=1.765 emerghkVA=70
New "Transformer.34086301-sc" phases=1 buses=[34086301.3, sec_34086301.3, ] conns=[wye, wye, ] kVs=[7.62, 0.24, ] kVAs=[25, 25, ] taps=[1, 1, ] buses=[34086301.3, sec_34086301.3, ] conns=[wye, wye, ] kVs=[7.62, 0.24, ] kVAs=[25, 25, ] taps=[1, 1, ] wdg=1 %R=0.504 RdcOhms=9.949916 wdg=2 %R=0.504 RdcOhms=0.009870336 RdcOhms=0.009870336 %loadloss=1.008 %noloadloss=0.23 XHL=1.803 emerghkVA=35
New "Transformer.34097398-sc" phases=1 buses=[34097398.3, sec_34097398.3, ] conns=[wye, wye, ] kVs=[7.62, 0.24, ] kVAs=[25, 25, ] taps=[1, 1, ] buses=[34097398.3, sec_34097398.3, ] conns=[wye, wye, ] kVs=[7.62, 0.24, ] kVAs=[25, 25, ] taps=[1, 1, ] wdg=1 %R=0.504 RdcOhms=9.949916 wdg=2 %R=0.504 RdcOhms=0.009870336 RdcOhms=0.009870336 %loadloss=1.008 %noloadloss=0.23 XHL=1.803 emerghkVA=35
New "Transformer.10574854-sc" phases=1 buses=[10574854.3, sec_10574854.3, ] conns=[wye, wye, ] kVs=[7.62, 0.24, ] kVAs=[15, 15, ] taps=[1, 1, ] buses=[10574854.3, sec_10574854.3, ] conns=[wye, wye, ] kVs=[7.62, 0.24, ] kVAs=[15, 15, ] taps=[1, 1, ] wdg=1 %R=0.38195 RdcOhms=12.56736 wdg=2 %R=0.38195 RdcOhms=0.01246685 RdcOhms=0.01246685 %loadloss=0.7639 %noloadloss=0.0851 XHL=2.1 emerghkVA=21
New "Transformer.34086303-sc" phases=1 buses=[34086303.3, sec_34086303.3, ] conns=[wye, wye, ] kVs=[7.62, 0.24, ] kVAs=[15, 15, ] taps=[1, 1, ] buses=[34086303.3, sec_34086303.3, ] conns=[wye, wye, ] kVs=[7.62, 0.24, ] kVAs=[15, 15, ] taps=[1, 1, ] wdg=1 %R=0.38195 RdcOhms=12.56736 wdg=2 %R=0.38195 RdcOhms=0.01246685 RdcOhms=0.01246685 %loadloss=0.7639 %noloadloss=0.0851 XHL=2.1 emerghkVA=21
New "Transformer.10558576-sc" phases=1 buses=[10558576.3, sec_10558576.3, ] conns=[wye, wye, ] kVs=[7.62, 0.24, ] kVAs=[15, 15, ] taps=[1, 1, ] buses=[10558576.3, sec_10558576.3, ] conns=[wye, wye, ] kVs=[7.62, 0.24, ] kVAs=[15, 15, ] taps=[1, 1, ] wdg=1 %R=0.4055 RdcOhms=13.34223 wdg=2 %R=0.4055 RdcOhms=0.01323552 RdcOhms=0.01323552 %loadloss=0.811 %noloadloss=0.184 XHL=1.765 emerghkVA=21
New "Transformer.20456673-sc" phases=1 buses=[20456673.3, sec_20456673.3, ] conns=[wye, wye, ] kVs=[7.62, 0.24, ] kVAs=[37.5, 37.5, ] taps=[1, 1, ] buses=[20456673.3, sec_20456673.3, ] conns=[wye, wye, ] kVs=[7.62, 0.24, ] kVAs=[37.5, 37.5, ] taps=[1, 1, ] wdg=1 %R=0.4055 RdcOhms=5.336893 wdg=2 %R=0.4055 RdcOhms=0.005294208 RdcOhms=0.005294208 %loadloss=0.811 %noloadloss=0.184 XHL=1.765 emerghkVA=51.8
New "Transformer.34086401-sc" phases=1 buses=[34086401.3, sec_34086401.3, ] conns=[wye, wye, ] kVs=[7.62, 0.24, ] kVAs=[15, 15, ] taps=[1, 1, ] buses=[34086401.3, sec_34086401.3, ] conns=[wye, wye, ] kVs=[7.62, 0.24, ] kVAs=[15, 15, ] taps=[1, 1, ] wdg=1 %R=0.504 RdcOhms=16.58319 wdg=2 %R=0.504 RdcOhms=0.01645056 RdcOhms=0.01645056 %loadloss=1.008 %noloadloss=0.23 XHL=1.803 emerghkVA=21
New "Transformer.10524061-sc" phases=1 buses=[10524061.3, sec_10524061.3, ] conns=[wye, wye, ] kVs=[7.62, 0.24, ] kVAs=[15, 15, ] taps=[1, 1, ] buses=[10524061.3, sec_10524061.3, ] conns=[wye, wye, ] kVs=[7.62, 0.24, ] kVAs=[15, 15, ] taps=[1, 1, ] wdg=1 %R=0.504 RdcOhms=16.58319 wdg=2 %R=0.504 RdcOhms=0.01645056 RdcOhms=0.01645056 %loadloss=1.008 %noloadloss=0.23 XHL=1.803 emerghkVA=21
New "Transformer.20122385-sc" phases=1 buses=[20122385.3, sec_20122385.3, ] conns=[wye, wye, ] kVs=[7.62, 0.24, ] kVAs=[25, 25, ] taps=[1, 1, ] buses=[20122385.3, sec_20122385.3, ] conns=[wye, wye, ] kVs=[7.62, 0.24, ] kVAs=[25, 25, ] taps=[1, 1, ] wdg=1 %R=0.504 RdcOhms=9.949916 wdg=2 %R=0.504 RdcOhms=0.009870336 RdcOhms=0.009870336 %loadloss=1.008 %noloadloss=0.23 XHL=1.803 emerghkVA=35
New "Transformer.10579978-sc" phases=1 buses=[10579978.3, sec_10579978.3, ] conns=[wye, wye, ] kVs=[7.62, 0.24, ] kVAs=[25, 25, ] taps=[1, 1, ] buses=[10579978.3, sec_10579978.3, ] conns=[wye, wye, ] kVs=[7.62, 0.24, ] kVAs=[25, 25, ] taps=[1, 1, ] wdg=1 %R=0.504 RdcOhms=9.949916 wdg=2 %R=0.504 RdcOhms=0.009870336 RdcOhms=0.009870336 %loadloss=1.008 %noloadloss=0.23 XHL=1.803 emerghkVA=35
...