Test_Systems/EPRI_DPV_K1-G/k21_feeder/Loads.dss
New "Load.res_10548985-s-a" phases=1 bus1=ld_10548985.1 kV=0.24 kW=14.3974937410526 pf=0.97 status=variable Vminpu=0.85 Vmaxpu=1.15 model=4 CVRwatts=0.8 CVRvars=3 class=1 xfkVA=12.2667578947368 NumCust=1 yearly=K21_A allocationfactor=1.21
New "Load.res_34084602-s-c" phases=1 bus1=ld_34084602.3 kV=0.24 kW=34.4935122174736 pf=0.97 status=variable Vminpu=0.85 Vmaxpu=1.15 model=4 CVRwatts=0.8 CVRvars=3 class=1 xfkVA=29.2918631578947 NumCust=6 yearly=K21_C allocationfactor=1.214
New "Load.com_10548901-s-a" phases=3 bus1=ld_10548901.1.2.3 kV=0.48 kW=5.07611535786667 pf=0.92 status=variable Vminpu=0.85 Vmaxpu=1.15 model=4 CVRwatts=0.8 CVRvars=3 class=2 xfkVA=4.54490666666667 NumCust=1 yearly=K21_ABC allocationfactor=1.214
New "Load.res_10548988-s-b" phases=1 bus1=ld_10548988.2 kV=0.24 kW=16.3057977147369 pf=0.97 status=variable Vminpu=0.85 Vmaxpu=1.15 model=4 CVRwatts=0.8 CVRvars=3 class=1 xfkVA=13.8127368421053 NumCust=3 yearly=K21_B allocationfactor=1.217
New "Load.res_10548989-s-b" phases=1 bus1=ld_10548989.2 kV=0.24 kW=12.6386738738947 pf=0.97 status=variable Vminpu=0.85 Vmaxpu=1.15 model=4 CVRwatts=0.8 CVRvars=3 class=1 xfkVA=10.7062947368421 NumCust=2 yearly=K21_B allocationfactor=1.217
New "Load.res_20350796-s-b" phases=1 bus1=ld_20350796.2 kV=0.24 kW=25.6100471084211 pf=0.97 status=variable Vminpu=0.85 Vmaxpu=1.15 model=4 CVRwatts=0.8 CVRvars=3 class=1 xfkVA=21.6944210526316 NumCust=4 yearly=K21_B allocationfactor=1.217
New "Load.res_34085371-s-b" phases=1 bus1=ld_34085371.2 kV=0.24 kW=19.0518659789474 pf=0.97 status=variable Vminpu=0.85 Vmaxpu=1.15 model=4 CVRwatts=0.8 CVRvars=3 class=1 xfkVA=16.1389473684211 NumCust=5 yearly=K21_B allocationfactor=1.217
New "Load.res_10548992-s-b" phases=1 bus1=ld_10548992.2 kV=0.24 kW=22.7314781613684 pf=0.97 status=variable Vminpu=0.85 Vmaxpu=1.15 model=4 CVRwatts=0.8 CVRvars=3 class=1 xfkVA=19.2559684210526 NumCust=6 yearly=K21_B allocationfactor=1.217
New "Load.res_10548986-s-a" phases=1 bus1=ld_10548986.1 kV=0.24 kW=2.42197072063158 pf=0.97 status=variable Vminpu=0.85 Vmaxpu=1.15 model=4 CVRwatts=0.8 CVRvars=3 class=1 xfkVA=2.06353473684211 NumCust=4 yearly=K21_A allocationfactor=1.21
New "Load.res_10548911-s-a" phases=1 bus1=ld_10548911.1 kV=0.24 kW=22.3473097736842 pf=0.97 status=variable Vminpu=0.85 Vmaxpu=1.15 model=4 CVRwatts=0.8 CVRvars=3 class=1 xfkVA=19.0400526315789 NumCust=2 yearly=K21_A allocationfactor=1.21
New "Load.com_34095651-s-a" phases=1 bus1=ld_34095651.1 kV=0.24 kW=0.410673085777777 pf=0.92 status=variable Vminpu=0.85 Vmaxpu=1.15 model=4 CVRwatts=0.8 CVRvars=3 class=2 xfkVA=0.368912222222222 NumCust=1 yearly=K21_A allocationfactor=1.21
New "Load.res_34090003-s-c" phases=1 bus1=ld_34090003.3 kV=0.24 kW=15.1014470625264 pf=0.97 status=variable Vminpu=0.85 Vmaxpu=1.15 model=4 CVRwatts=0.8 CVRvars=3 class=1 xfkVA=12.8241368421053 NumCust=2 yearly=K21_C allocationfactor=1.214
New "Load.res_10548962-s-b" phases=1 bus1=ld_10548962.2 kV=0.24 kW=31.2057312491578 pf=0.97 status=variable Vminpu=0.85 Vmaxpu=1.15 model=4 CVRwatts=0.8 CVRvars=3 class=1 xfkVA=26.4345578947368 NumCust=1 yearly=K21_B allocationfactor=1.217
New "Load.com_34090004-s-c" phases=3 bus1=ld_34090004.1.2.3 kV=0.48 kW=0.615356204799999 pf=0.92 status=variable Vminpu=0.85 Vmaxpu=1.15 model=4 CVRwatts=0.8 CVRvars=3 class=2 xfkVA=0.550959999999999 NumCust=2 yearly=K21_ABC allocationfactor=1.214
New "Load.res_10548948-s-b" phases=1 bus1=ld_10548948.2 kV=0.24 kW=0.0057607912 pf=0.97 status=variable Vminpu=0.85 Vmaxpu=1.15 model=4 CVRwatts=0.8 CVRvars=3 class=1 xfkVA=0.00488 NumCust=1 yearly=K21_B allocationfactor=1.217
New "Load.res_34085352-s-b" phases=1 bus1=ld_34085352.2 kV=0.24 kW=7.09066910294737 pf=0.97 status=variable Vminpu=0.85 Vmaxpu=1.15 model=4 CVRwatts=0.8 CVRvars=3 class=1 xfkVA=6.00654736842105 NumCust=1 yearly=K21_B allocationfactor=1.217
New "Load.res_34090753-s-a" phases=1 bus1=ld_34090753.1 kV=0.24 kW=4.166494156 pf=0.97 status=variable Vminpu=0.85 Vmaxpu=1.15 model=4 CVRwatts=0.8 CVRvars=3 class=1 xfkVA=3.54988 NumCust=1 yearly=K21_A allocationfactor=1.21
New "Load.res_10548945-s-c" phases=1 bus1=ld_10548945.3 kV=0.24 kW=15.296305563579 pf=0.97 status=variable Vminpu=0.85 Vmaxpu=1.15 model=4 CVRwatts=0.8 CVRvars=3 class=1 xfkVA=12.9896105263158 NumCust=1 yearly=K21_C allocationfactor=1.214
New "Load.com_34084591-s-b" phases=1 bus1=ld_34084591.2 kV=0.24 kW=15.5199520622223 pf=0.92 status=variable Vminpu=0.85 Vmaxpu=1.15 model=4 CVRwatts=0.8 CVRvars=3 class=2 xfkVA=13.8615555555556 NumCust=2 yearly=K21_B allocationfactor=1.217
New "Load.res_34085402-s-b" phases=1 bus1=ld_34085402.2 kV=0.24 kW=4.14005174464211 pf=0.97 status=variable Vminpu=0.85 Vmaxpu=1.15 model=4 CVRwatts=0.8 CVRvars=3 class=1 xfkVA=3.50706210526316 NumCust=2 yearly=K21_B allocationfactor=1.217
...